
---------- Begin Simulation Statistics ----------
simSeconds                                   0.011871                       # Number of seconds simulated (Second)
simTicks                                  11870599000                       # Number of ticks simulated (Tick)
finalTick                                 11870599000                       # Number of ticks from beginning of simulation (restored from checkpoints and never reset) (Tick)
simFreq                                  1000000000000                       # The number of ticks per simulated second ((Tick/Second))
hostSeconds                                      3.13                       # Real time elapsed on the host (Second)
hostTickRate                               3796585868                       # The number of ticks simulated per host second (ticks/s) ((Tick/Second))
hostMemory                                     732820                       # Number of bytes of host memory used (Byte)
simInsts                                      7634957                       # Number of instructions simulated (Count)
simOps                                        8885203                       # Number of ops (including micro ops) simulated (Count)
hostInstRate                                  2441820                       # Simulator instruction rate (inst/s) ((Count/Second))
hostOpRate                                    2841673                       # Simulator op (including micro ops) rate (op/s) ((Count/Second))
system.clk_domain.clock                          1000                       # Clock period in ticks (Tick)
system.cpu.numCycles                         23741198                       # Number of cpu cycles simulated (Cycle)
system.cpu.cpi                               3.109539                       # CPI: cycles per instruction (core level) ((Cycle/Count))
system.cpu.ipc                               0.321591                       # IPC: instructions per cycle (core level) ((Count/Cycle))
system.cpu.numWorkItemsStarted                      0                       # Number of work items this cpu started (Count)
system.cpu.numWorkItemsCompleted                    0                       # Number of work items this cpu completed (Count)
system.cpu.issuedInstType_0::No_OpClass         24384      0.27%      0.27% # Number of insts issued per FU, per thread (Count)
system.cpu.issuedInstType_0::IntAlu           6582723     74.09%     74.36% # Number of insts issued per FU, per thread (Count)
system.cpu.issuedInstType_0::IntMult            51566      0.58%     74.94% # Number of insts issued per FU, per thread (Count)
system.cpu.issuedInstType_0::IntDiv             20775      0.23%     75.17% # Number of insts issued per FU, per thread (Count)
system.cpu.issuedInstType_0::FloatAdd               0      0.00%     75.17% # Number of insts issued per FU, per thread (Count)
system.cpu.issuedInstType_0::FloatCmp               0      0.00%     75.17% # Number of insts issued per FU, per thread (Count)
system.cpu.issuedInstType_0::FloatCvt               0      0.00%     75.17% # Number of insts issued per FU, per thread (Count)
system.cpu.issuedInstType_0::FloatMult              0      0.00%     75.17% # Number of insts issued per FU, per thread (Count)
system.cpu.issuedInstType_0::FloatMultAcc            0      0.00%     75.17% # Number of insts issued per FU, per thread (Count)
system.cpu.issuedInstType_0::FloatDiv               0      0.00%     75.17% # Number of insts issued per FU, per thread (Count)
system.cpu.issuedInstType_0::FloatMisc           3172      0.04%     75.21% # Number of insts issued per FU, per thread (Count)
system.cpu.issuedInstType_0::FloatSqrt              0      0.00%     75.21% # Number of insts issued per FU, per thread (Count)
system.cpu.issuedInstType_0::SimdAdd               19      0.00%     75.21% # Number of insts issued per FU, per thread (Count)
system.cpu.issuedInstType_0::SimdAddAcc             0      0.00%     75.21% # Number of insts issued per FU, per thread (Count)
system.cpu.issuedInstType_0::SimdAlu             2249      0.03%     75.24% # Number of insts issued per FU, per thread (Count)
system.cpu.issuedInstType_0::SimdCmp             7345      0.08%     75.32% # Number of insts issued per FU, per thread (Count)
system.cpu.issuedInstType_0::SimdCvt                0      0.00%     75.32% # Number of insts issued per FU, per thread (Count)
system.cpu.issuedInstType_0::SimdMisc            2320      0.03%     75.34% # Number of insts issued per FU, per thread (Count)
system.cpu.issuedInstType_0::SimdMult               0      0.00%     75.34% # Number of insts issued per FU, per thread (Count)
system.cpu.issuedInstType_0::SimdMultAcc            0      0.00%     75.34% # Number of insts issued per FU, per thread (Count)
system.cpu.issuedInstType_0::SimdMatMultAcc            0      0.00%     75.34% # Number of insts issued per FU, per thread (Count)
system.cpu.issuedInstType_0::SimdShift           1473      0.02%     75.36% # Number of insts issued per FU, per thread (Count)
system.cpu.issuedInstType_0::SimdShiftAcc            0      0.00%     75.36% # Number of insts issued per FU, per thread (Count)
system.cpu.issuedInstType_0::SimdDiv                0      0.00%     75.36% # Number of insts issued per FU, per thread (Count)
system.cpu.issuedInstType_0::SimdSqrt               0      0.00%     75.36% # Number of insts issued per FU, per thread (Count)
system.cpu.issuedInstType_0::SimdFloatAdd            0      0.00%     75.36% # Number of insts issued per FU, per thread (Count)
system.cpu.issuedInstType_0::SimdFloatAlu            0      0.00%     75.36% # Number of insts issued per FU, per thread (Count)
system.cpu.issuedInstType_0::SimdFloatCmp            0      0.00%     75.36% # Number of insts issued per FU, per thread (Count)
system.cpu.issuedInstType_0::SimdFloatCvt            0      0.00%     75.36% # Number of insts issued per FU, per thread (Count)
system.cpu.issuedInstType_0::SimdFloatDiv            0      0.00%     75.36% # Number of insts issued per FU, per thread (Count)
system.cpu.issuedInstType_0::SimdFloatMisc            0      0.00%     75.36% # Number of insts issued per FU, per thread (Count)
system.cpu.issuedInstType_0::SimdFloatMult            0      0.00%     75.36% # Number of insts issued per FU, per thread (Count)
system.cpu.issuedInstType_0::SimdFloatMultAcc            0      0.00%     75.36% # Number of insts issued per FU, per thread (Count)
system.cpu.issuedInstType_0::SimdFloatMatMultAcc            0      0.00%     75.36% # Number of insts issued per FU, per thread (Count)
system.cpu.issuedInstType_0::SimdFloatSqrt            0      0.00%     75.36% # Number of insts issued per FU, per thread (Count)
system.cpu.issuedInstType_0::SimdReduceAdd            0      0.00%     75.36% # Number of insts issued per FU, per thread (Count)
system.cpu.issuedInstType_0::SimdReduceAlu            0      0.00%     75.36% # Number of insts issued per FU, per thread (Count)
system.cpu.issuedInstType_0::SimdReduceCmp            0      0.00%     75.36% # Number of insts issued per FU, per thread (Count)
system.cpu.issuedInstType_0::SimdFloatReduceAdd            0      0.00%     75.36% # Number of insts issued per FU, per thread (Count)
system.cpu.issuedInstType_0::SimdFloatReduceCmp            0      0.00%     75.36% # Number of insts issued per FU, per thread (Count)
system.cpu.issuedInstType_0::SimdAes                0      0.00%     75.36% # Number of insts issued per FU, per thread (Count)
system.cpu.issuedInstType_0::SimdAesMix             0      0.00%     75.36% # Number of insts issued per FU, per thread (Count)
system.cpu.issuedInstType_0::SimdSha1Hash            0      0.00%     75.36% # Number of insts issued per FU, per thread (Count)
system.cpu.issuedInstType_0::SimdSha1Hash2            0      0.00%     75.36% # Number of insts issued per FU, per thread (Count)
system.cpu.issuedInstType_0::SimdSha256Hash           16      0.00%     75.36% # Number of insts issued per FU, per thread (Count)
system.cpu.issuedInstType_0::SimdSha256Hash2           16      0.00%     75.36% # Number of insts issued per FU, per thread (Count)
system.cpu.issuedInstType_0::SimdShaSigma2           12      0.00%     75.36% # Number of insts issued per FU, per thread (Count)
system.cpu.issuedInstType_0::SimdShaSigma3           12      0.00%     75.36% # Number of insts issued per FU, per thread (Count)
system.cpu.issuedInstType_0::SimdSha3               0      0.00%     75.36% # Number of insts issued per FU, per thread (Count)
system.cpu.issuedInstType_0::SimdSm4e               0      0.00%     75.36% # Number of insts issued per FU, per thread (Count)
system.cpu.issuedInstType_0::SimdCrc                0      0.00%     75.36% # Number of insts issued per FU, per thread (Count)
system.cpu.issuedInstType_0::SimdPredAlu            0      0.00%     75.36% # Number of insts issued per FU, per thread (Count)
system.cpu.issuedInstType_0::SimdDotProd            0      0.00%     75.36% # Number of insts issued per FU, per thread (Count)
system.cpu.issuedInstType_0::Matrix                 0      0.00%     75.36% # Number of insts issued per FU, per thread (Count)
system.cpu.issuedInstType_0::MatrixMov              0      0.00%     75.36% # Number of insts issued per FU, per thread (Count)
system.cpu.issuedInstType_0::MatrixOP               0      0.00%     75.36% # Number of insts issued per FU, per thread (Count)
system.cpu.issuedInstType_0::MemRead          1239788     13.95%     89.32% # Number of insts issued per FU, per thread (Count)
system.cpu.issuedInstType_0::MemWrite          925806     10.42%     99.74% # Number of insts issued per FU, per thread (Count)
system.cpu.issuedInstType_0::FloatMemRead            0      0.00%     99.74% # Number of insts issued per FU, per thread (Count)
system.cpu.issuedInstType_0::FloatMemWrite            0      0.00%     99.74% # Number of insts issued per FU, per thread (Count)
system.cpu.issuedInstType_0::InstPrefetch            0      0.00%     99.74% # Number of insts issued per FU, per thread (Count)
system.cpu.issuedInstType_0::SimdUnitStrideLoad            0      0.00%     99.74% # Number of insts issued per FU, per thread (Count)
system.cpu.issuedInstType_0::SimdUnitStrideStore            0      0.00%     99.74% # Number of insts issued per FU, per thread (Count)
system.cpu.issuedInstType_0::SimdUnitStrideMaskLoad            0      0.00%     99.74% # Number of insts issued per FU, per thread (Count)
system.cpu.issuedInstType_0::SimdUnitStrideMaskStore            0      0.00%     99.74% # Number of insts issued per FU, per thread (Count)
system.cpu.issuedInstType_0::SimdStridedLoad            0      0.00%     99.74% # Number of insts issued per FU, per thread (Count)
system.cpu.issuedInstType_0::SimdStridedStore            0      0.00%     99.74% # Number of insts issued per FU, per thread (Count)
system.cpu.issuedInstType_0::SimdIndexedLoad            0      0.00%     99.74% # Number of insts issued per FU, per thread (Count)
system.cpu.issuedInstType_0::SimdIndexedStore            0      0.00%     99.74% # Number of insts issued per FU, per thread (Count)
system.cpu.issuedInstType_0::SimdWholeRegisterLoad            0      0.00%     99.74% # Number of insts issued per FU, per thread (Count)
system.cpu.issuedInstType_0::SimdWholeRegisterStore            0      0.00%     99.74% # Number of insts issued per FU, per thread (Count)
system.cpu.issuedInstType_0::SimdUnitStrideFaultOnlyFirstLoad            0      0.00%     99.74% # Number of insts issued per FU, per thread (Count)
system.cpu.issuedInstType_0::SimdUnitStrideSegmentedLoad            0      0.00%     99.74% # Number of insts issued per FU, per thread (Count)
system.cpu.issuedInstType_0::SimdUnitStrideSegmentedStore            0      0.00%     99.74% # Number of insts issued per FU, per thread (Count)
system.cpu.issuedInstType_0::SimdUnitStrideSegmentedFaultOnlyFirstLoad            0      0.00%     99.74% # Number of insts issued per FU, per thread (Count)
system.cpu.issuedInstType_0::SimdStrideSegmentedLoad            0      0.00%     99.74% # Number of insts issued per FU, per thread (Count)
system.cpu.issuedInstType_0::SimdStrideSegmentedStore            0      0.00%     99.74% # Number of insts issued per FU, per thread (Count)
system.cpu.issuedInstType_0::SimdExt                0      0.00%     99.74% # Number of insts issued per FU, per thread (Count)
system.cpu.issuedInstType_0::SimdFloatExt            0      0.00%     99.74% # Number of insts issued per FU, per thread (Count)
system.cpu.issuedInstType_0::SimdConfig             0      0.00%     99.74% # Number of insts issued per FU, per thread (Count)
system.cpu.issuedInstType_0::SimdBf16Add            0      0.00%     99.74% # Number of insts issued per FU, per thread (Count)
system.cpu.issuedInstType_0::SimdBf16Cmp            0      0.00%     99.74% # Number of insts issued per FU, per thread (Count)
system.cpu.issuedInstType_0::SimdBf16Cvt            0      0.00%     99.74% # Number of insts issued per FU, per thread (Count)
system.cpu.issuedInstType_0::SimdBf16DotProd            0      0.00%     99.74% # Number of insts issued per FU, per thread (Count)
system.cpu.issuedInstType_0::SimdBf16MatMultAcc            0      0.00%     99.74% # Number of insts issued per FU, per thread (Count)
system.cpu.issuedInstType_0::SimdBf16Mult            0      0.00%     99.74% # Number of insts issued per FU, per thread (Count)
system.cpu.issuedInstType_0::SimdBf16MultAcc            0      0.00%     99.74% # Number of insts issued per FU, per thread (Count)
system.cpu.issuedInstType_0::Bf16Cvt                0      0.00%     99.74% # Number of insts issued per FU, per thread (Count)
system.cpu.issuedInstType_0::System             23527      0.26%    100.00% # Number of insts issued per FU, per thread (Count)
system.cpu.issuedInstType_0::total            8885203                       # Number of insts issued per FU, per thread (Count)
system.cpu.commitStats0.numInsts              7634957                       # Number of instructions committed (thread level) (Count)
system.cpu.commitStats0.numOps                8885203                       # Number of ops (including micro ops) committed (thread level) (Count)
system.cpu.commitStats0.numInstsNotNOP        7618077                       # Number of instructions committed excluding NOPs or prefetches (Count)
system.cpu.commitStats0.numOpsNotNOP          8868323                       # Number of Ops (including micro ops) Simulated (Count)
system.cpu.commitStats0.numUserInsts          7634957                       # Numbrer of instructions committed in user mode (Count)
system.cpu.commitStats0.numUserOps            8885203                       # Number of ops committed in user mode (Count)
system.cpu.commitStats0.ratioUserInsts              1                       # Ratio of instructions committed in user mode (Ratio)
system.cpu.commitStats0.ratioUserOps                1                       # Ratio of ops committed in user mode (Ratio)
system.cpu.commitStats0.cpi                  3.109539                       # CPI: cycles per instruction (thread level) ((Cycle/Count))
system.cpu.commitStats0.ipc                  0.321591                       # IPC: instructions per cycle (thread level) ((Count/Cycle))
system.cpu.commitStats0.numMemRefs            2165594                       # Number of memory references committed (Count)
system.cpu.commitStats0.numFpInsts                  0                       # Number of float instructions (Count)
system.cpu.commitStats0.numIntInsts           8164981                       # Number of integer instructions (Count)
system.cpu.commitStats0.numLoadInsts          1239788                       # Number of load instructions (Count)
system.cpu.commitStats0.numStoreInsts          925806                       # Number of store instructions (Count)
system.cpu.commitStats0.numVecInsts             75407                       # Number of vector instructions (Count)
system.cpu.commitStats0.committedInstType::No_OpClass        24384      0.27%      0.27% # Class of committed instruction. (Count)
system.cpu.commitStats0.committedInstType::IntAlu      6582723     74.09%     74.36% # Class of committed instruction. (Count)
system.cpu.commitStats0.committedInstType::IntMult        51566      0.58%     74.94% # Class of committed instruction. (Count)
system.cpu.commitStats0.committedInstType::IntDiv        20775      0.23%     75.17% # Class of committed instruction. (Count)
system.cpu.commitStats0.committedInstType::FloatAdd            0      0.00%     75.17% # Class of committed instruction. (Count)
system.cpu.commitStats0.committedInstType::FloatCmp            0      0.00%     75.17% # Class of committed instruction. (Count)
system.cpu.commitStats0.committedInstType::FloatCvt            0      0.00%     75.17% # Class of committed instruction. (Count)
system.cpu.commitStats0.committedInstType::FloatMult            0      0.00%     75.17% # Class of committed instruction. (Count)
system.cpu.commitStats0.committedInstType::FloatMultAcc            0      0.00%     75.17% # Class of committed instruction. (Count)
system.cpu.commitStats0.committedInstType::FloatDiv            0      0.00%     75.17% # Class of committed instruction. (Count)
system.cpu.commitStats0.committedInstType::FloatMisc         3172      0.04%     75.21% # Class of committed instruction. (Count)
system.cpu.commitStats0.committedInstType::FloatSqrt            0      0.00%     75.21% # Class of committed instruction. (Count)
system.cpu.commitStats0.committedInstType::SimdAdd           19      0.00%     75.21% # Class of committed instruction. (Count)
system.cpu.commitStats0.committedInstType::SimdAddAcc            0      0.00%     75.21% # Class of committed instruction. (Count)
system.cpu.commitStats0.committedInstType::SimdAlu         2249      0.03%     75.24% # Class of committed instruction. (Count)
system.cpu.commitStats0.committedInstType::SimdCmp         7345      0.08%     75.32% # Class of committed instruction. (Count)
system.cpu.commitStats0.committedInstType::SimdCvt            0      0.00%     75.32% # Class of committed instruction. (Count)
system.cpu.commitStats0.committedInstType::SimdMisc         2320      0.03%     75.34% # Class of committed instruction. (Count)
system.cpu.commitStats0.committedInstType::SimdMult            0      0.00%     75.34% # Class of committed instruction. (Count)
system.cpu.commitStats0.committedInstType::SimdMultAcc            0      0.00%     75.34% # Class of committed instruction. (Count)
system.cpu.commitStats0.committedInstType::SimdMatMultAcc            0      0.00%     75.34% # Class of committed instruction. (Count)
system.cpu.commitStats0.committedInstType::SimdShift         1473      0.02%     75.36% # Class of committed instruction. (Count)
system.cpu.commitStats0.committedInstType::SimdShiftAcc            0      0.00%     75.36% # Class of committed instruction. (Count)
system.cpu.commitStats0.committedInstType::SimdDiv            0      0.00%     75.36% # Class of committed instruction. (Count)
system.cpu.commitStats0.committedInstType::SimdSqrt            0      0.00%     75.36% # Class of committed instruction. (Count)
system.cpu.commitStats0.committedInstType::SimdFloatAdd            0      0.00%     75.36% # Class of committed instruction. (Count)
system.cpu.commitStats0.committedInstType::SimdFloatAlu            0      0.00%     75.36% # Class of committed instruction. (Count)
system.cpu.commitStats0.committedInstType::SimdFloatCmp            0      0.00%     75.36% # Class of committed instruction. (Count)
system.cpu.commitStats0.committedInstType::SimdFloatCvt            0      0.00%     75.36% # Class of committed instruction. (Count)
system.cpu.commitStats0.committedInstType::SimdFloatDiv            0      0.00%     75.36% # Class of committed instruction. (Count)
system.cpu.commitStats0.committedInstType::SimdFloatMisc            0      0.00%     75.36% # Class of committed instruction. (Count)
system.cpu.commitStats0.committedInstType::SimdFloatMult            0      0.00%     75.36% # Class of committed instruction. (Count)
system.cpu.commitStats0.committedInstType::SimdFloatMultAcc            0      0.00%     75.36% # Class of committed instruction. (Count)
system.cpu.commitStats0.committedInstType::SimdFloatMatMultAcc            0      0.00%     75.36% # Class of committed instruction. (Count)
system.cpu.commitStats0.committedInstType::SimdFloatSqrt            0      0.00%     75.36% # Class of committed instruction. (Count)
system.cpu.commitStats0.committedInstType::SimdReduceAdd            0      0.00%     75.36% # Class of committed instruction. (Count)
system.cpu.commitStats0.committedInstType::SimdReduceAlu            0      0.00%     75.36% # Class of committed instruction. (Count)
system.cpu.commitStats0.committedInstType::SimdReduceCmp            0      0.00%     75.36% # Class of committed instruction. (Count)
system.cpu.commitStats0.committedInstType::SimdFloatReduceAdd            0      0.00%     75.36% # Class of committed instruction. (Count)
system.cpu.commitStats0.committedInstType::SimdFloatReduceCmp            0      0.00%     75.36% # Class of committed instruction. (Count)
system.cpu.commitStats0.committedInstType::SimdAes            0      0.00%     75.36% # Class of committed instruction. (Count)
system.cpu.commitStats0.committedInstType::SimdAesMix            0      0.00%     75.36% # Class of committed instruction. (Count)
system.cpu.commitStats0.committedInstType::SimdSha1Hash            0      0.00%     75.36% # Class of committed instruction. (Count)
system.cpu.commitStats0.committedInstType::SimdSha1Hash2            0      0.00%     75.36% # Class of committed instruction. (Count)
system.cpu.commitStats0.committedInstType::SimdSha256Hash           16      0.00%     75.36% # Class of committed instruction. (Count)
system.cpu.commitStats0.committedInstType::SimdSha256Hash2           16      0.00%     75.36% # Class of committed instruction. (Count)
system.cpu.commitStats0.committedInstType::SimdShaSigma2           12      0.00%     75.36% # Class of committed instruction. (Count)
system.cpu.commitStats0.committedInstType::SimdShaSigma3           12      0.00%     75.36% # Class of committed instruction. (Count)
system.cpu.commitStats0.committedInstType::SimdSha3            0      0.00%     75.36% # Class of committed instruction. (Count)
system.cpu.commitStats0.committedInstType::SimdSm4e            0      0.00%     75.36% # Class of committed instruction. (Count)
system.cpu.commitStats0.committedInstType::SimdCrc            0      0.00%     75.36% # Class of committed instruction. (Count)
system.cpu.commitStats0.committedInstType::SimdPredAlu            0      0.00%     75.36% # Class of committed instruction. (Count)
system.cpu.commitStats0.committedInstType::SimdDotProd            0      0.00%     75.36% # Class of committed instruction. (Count)
system.cpu.commitStats0.committedInstType::Matrix            0      0.00%     75.36% # Class of committed instruction. (Count)
system.cpu.commitStats0.committedInstType::MatrixMov            0      0.00%     75.36% # Class of committed instruction. (Count)
system.cpu.commitStats0.committedInstType::MatrixOP            0      0.00%     75.36% # Class of committed instruction. (Count)
system.cpu.commitStats0.committedInstType::MemRead      1239788     13.95%     89.32% # Class of committed instruction. (Count)
system.cpu.commitStats0.committedInstType::MemWrite       925806     10.42%     99.74% # Class of committed instruction. (Count)
system.cpu.commitStats0.committedInstType::FloatMemRead            0      0.00%     99.74% # Class of committed instruction. (Count)
system.cpu.commitStats0.committedInstType::FloatMemWrite            0      0.00%     99.74% # Class of committed instruction. (Count)
system.cpu.commitStats0.committedInstType::InstPrefetch            0      0.00%     99.74% # Class of committed instruction. (Count)
system.cpu.commitStats0.committedInstType::SimdUnitStrideLoad            0      0.00%     99.74% # Class of committed instruction. (Count)
system.cpu.commitStats0.committedInstType::SimdUnitStrideStore            0      0.00%     99.74% # Class of committed instruction. (Count)
system.cpu.commitStats0.committedInstType::SimdUnitStrideMaskLoad            0      0.00%     99.74% # Class of committed instruction. (Count)
system.cpu.commitStats0.committedInstType::SimdUnitStrideMaskStore            0      0.00%     99.74% # Class of committed instruction. (Count)
system.cpu.commitStats0.committedInstType::SimdStridedLoad            0      0.00%     99.74% # Class of committed instruction. (Count)
system.cpu.commitStats0.committedInstType::SimdStridedStore            0      0.00%     99.74% # Class of committed instruction. (Count)
system.cpu.commitStats0.committedInstType::SimdIndexedLoad            0      0.00%     99.74% # Class of committed instruction. (Count)
system.cpu.commitStats0.committedInstType::SimdIndexedStore            0      0.00%     99.74% # Class of committed instruction. (Count)
system.cpu.commitStats0.committedInstType::SimdWholeRegisterLoad            0      0.00%     99.74% # Class of committed instruction. (Count)
system.cpu.commitStats0.committedInstType::SimdWholeRegisterStore            0      0.00%     99.74% # Class of committed instruction. (Count)
system.cpu.commitStats0.committedInstType::SimdUnitStrideFaultOnlyFirstLoad            0      0.00%     99.74% # Class of committed instruction. (Count)
system.cpu.commitStats0.committedInstType::SimdUnitStrideSegmentedLoad            0      0.00%     99.74% # Class of committed instruction. (Count)
system.cpu.commitStats0.committedInstType::SimdUnitStrideSegmentedStore            0      0.00%     99.74% # Class of committed instruction. (Count)
system.cpu.commitStats0.committedInstType::SimdUnitStrideSegmentedFaultOnlyFirstLoad            0      0.00%     99.74% # Class of committed instruction. (Count)
system.cpu.commitStats0.committedInstType::SimdStrideSegmentedLoad            0      0.00%     99.74% # Class of committed instruction. (Count)
system.cpu.commitStats0.committedInstType::SimdStrideSegmentedStore            0      0.00%     99.74% # Class of committed instruction. (Count)
system.cpu.commitStats0.committedInstType::SimdExt            0      0.00%     99.74% # Class of committed instruction. (Count)
system.cpu.commitStats0.committedInstType::SimdFloatExt            0      0.00%     99.74% # Class of committed instruction. (Count)
system.cpu.commitStats0.committedInstType::SimdConfig            0      0.00%     99.74% # Class of committed instruction. (Count)
system.cpu.commitStats0.committedInstType::SimdBf16Add            0      0.00%     99.74% # Class of committed instruction. (Count)
system.cpu.commitStats0.committedInstType::SimdBf16Cmp            0      0.00%     99.74% # Class of committed instruction. (Count)
system.cpu.commitStats0.committedInstType::SimdBf16Cvt            0      0.00%     99.74% # Class of committed instruction. (Count)
system.cpu.commitStats0.committedInstType::SimdBf16DotProd            0      0.00%     99.74% # Class of committed instruction. (Count)
system.cpu.commitStats0.committedInstType::SimdBf16MatMultAcc            0      0.00%     99.74% # Class of committed instruction. (Count)
system.cpu.commitStats0.committedInstType::SimdBf16Mult            0      0.00%     99.74% # Class of committed instruction. (Count)
system.cpu.commitStats0.committedInstType::SimdBf16MultAcc            0      0.00%     99.74% # Class of committed instruction. (Count)
system.cpu.commitStats0.committedInstType::Bf16Cvt            0      0.00%     99.74% # Class of committed instruction. (Count)
system.cpu.commitStats0.committedInstType::System        23527      0.26%    100.00% # Class of committed instruction. (Count)
system.cpu.commitStats0.committedInstType::total      8885203                       # Class of committed instruction. (Count)
system.cpu.commitStats0.committedControl::IsControl      1618573                       # Class of control type instructions committed (Count)
system.cpu.commitStats0.committedControl::IsDirectControl      1395327                       # Class of control type instructions committed (Count)
system.cpu.commitStats0.committedControl::IsIndirectControl       223246                       # Class of control type instructions committed (Count)
system.cpu.commitStats0.committedControl::IsCondControl      1103131                       # Class of control type instructions committed (Count)
system.cpu.commitStats0.committedControl::IsUncondControl       515442                       # Class of control type instructions committed (Count)
system.cpu.commitStats0.committedControl::IsCall       193576                       # Class of control type instructions committed (Count)
system.cpu.commitStats0.committedControl::IsReturn       193571                       # Class of control type instructions committed (Count)
system.cpu.commitStats0.functionCalls          193576                       # Number of function calls committed (Count)
system.cpu.commitStats0.numCallsReturns        387147                       # Number of function calls and returns committed (Count)
system.cpu.dcache.demandHits::cpu.data        2140847                       # number of demand (read+write) hits (Count)
system.cpu.dcache.demandHits::total           2140847                       # number of demand (read+write) hits (Count)
system.cpu.dcache.overallHits::cpu.data       2140847                       # number of overall hits (Count)
system.cpu.dcache.overallHits::total          2140847                       # number of overall hits (Count)
system.cpu.dcache.demandMisses::cpu.data        17231                       # number of demand (read+write) misses (Count)
system.cpu.dcache.demandMisses::total           17231                       # number of demand (read+write) misses (Count)
system.cpu.dcache.overallMisses::cpu.data        17231                       # number of overall misses (Count)
system.cpu.dcache.overallMisses::total          17231                       # number of overall misses (Count)
system.cpu.dcache.demandMissLatency::cpu.data   1020397000                       # number of demand (read+write) miss ticks (Tick)
system.cpu.dcache.demandMissLatency::total   1020397000                       # number of demand (read+write) miss ticks (Tick)
system.cpu.dcache.overallMissLatency::cpu.data   1020397000                       # number of overall miss ticks (Tick)
system.cpu.dcache.overallMissLatency::total   1020397000                       # number of overall miss ticks (Tick)
system.cpu.dcache.demandAccesses::cpu.data      2158078                       # number of demand (read+write) accesses (Count)
system.cpu.dcache.demandAccesses::total       2158078                       # number of demand (read+write) accesses (Count)
system.cpu.dcache.overallAccesses::cpu.data      2158078                       # number of overall (read+write) accesses (Count)
system.cpu.dcache.overallAccesses::total      2158078                       # number of overall (read+write) accesses (Count)
system.cpu.dcache.demandMissRate::cpu.data     0.007984                       # miss rate for demand accesses (Ratio)
system.cpu.dcache.demandMissRate::total      0.007984                       # miss rate for demand accesses (Ratio)
system.cpu.dcache.overallMissRate::cpu.data     0.007984                       # miss rate for overall accesses (Ratio)
system.cpu.dcache.overallMissRate::total     0.007984                       # miss rate for overall accesses (Ratio)
system.cpu.dcache.demandAvgMissLatency::cpu.data 59218.675643                       # average overall miss latency in ticks ((Tick/Count))
system.cpu.dcache.demandAvgMissLatency::total 59218.675643                       # average overall miss latency in ticks ((Tick/Count))
system.cpu.dcache.overallAvgMissLatency::cpu.data 59218.675643                       # average overall miss latency ((Tick/Count))
system.cpu.dcache.overallAvgMissLatency::total 59218.675643                       # average overall miss latency ((Tick/Count))
system.cpu.dcache.blockedCycles::no_mshrs            0                       # number of cycles access was blocked (Cycle)
system.cpu.dcache.blockedCycles::no_wbuffers            0                       # number of cycles access was blocked (Cycle)
system.cpu.dcache.blockedCycles::no_targets            0                       # number of cycles access was blocked (Cycle)
system.cpu.dcache.blockedCauses::no_mshrs            0                       # number of times access was blocked (Count)
system.cpu.dcache.blockedCauses::no_wbuffers            0                       # number of times access was blocked (Count)
system.cpu.dcache.blockedCauses::no_targets            0                       # number of times access was blocked (Count)
system.cpu.dcache.avgBlocked::no_mshrs            nan                       # average number of cycles each access was blocked ((Cycle/Count))
system.cpu.dcache.avgBlocked::no_wbuffers          nan                       # average number of cycles each access was blocked ((Cycle/Count))
system.cpu.dcache.avgBlocked::no_targets          nan                       # average number of cycles each access was blocked ((Cycle/Count))
system.cpu.dcache.writebacks::writebacks         3888                       # number of writebacks (Count)
system.cpu.dcache.writebacks::total              3888                       # number of writebacks (Count)
system.cpu.dcache.demandMshrMisses::cpu.data        17231                       # number of demand (read+write) MSHR misses (Count)
system.cpu.dcache.demandMshrMisses::total        17231                       # number of demand (read+write) MSHR misses (Count)
system.cpu.dcache.overallMshrMisses::cpu.data        17231                       # number of overall MSHR misses (Count)
system.cpu.dcache.overallMshrMisses::total        17231                       # number of overall MSHR misses (Count)
system.cpu.dcache.demandMshrMissLatency::cpu.data   1003166000                       # number of demand (read+write) MSHR miss ticks (Tick)
system.cpu.dcache.demandMshrMissLatency::total   1003166000                       # number of demand (read+write) MSHR miss ticks (Tick)
system.cpu.dcache.overallMshrMissLatency::cpu.data   1003166000                       # number of overall MSHR miss ticks (Tick)
system.cpu.dcache.overallMshrMissLatency::total   1003166000                       # number of overall MSHR miss ticks (Tick)
system.cpu.dcache.demandMshrMissRate::cpu.data     0.007984                       # mshr miss ratio for demand accesses (Ratio)
system.cpu.dcache.demandMshrMissRate::total     0.007984                       # mshr miss ratio for demand accesses (Ratio)
system.cpu.dcache.overallMshrMissRate::cpu.data     0.007984                       # mshr miss ratio for overall accesses (Ratio)
system.cpu.dcache.overallMshrMissRate::total     0.007984                       # mshr miss ratio for overall accesses (Ratio)
system.cpu.dcache.demandAvgMshrMissLatency::cpu.data 58218.675643                       # average overall mshr miss latency ((Tick/Count))
system.cpu.dcache.demandAvgMshrMissLatency::total 58218.675643                       # average overall mshr miss latency ((Tick/Count))
system.cpu.dcache.overallAvgMshrMissLatency::cpu.data 58218.675643                       # average overall mshr miss latency ((Tick/Count))
system.cpu.dcache.overallAvgMshrMissLatency::total 58218.675643                       # average overall mshr miss latency ((Tick/Count))
system.cpu.dcache.replacements                  16247                       # number of replacements (Count)
system.cpu.dcache.LoadLockedReq.hits::cpu.data            3                       # number of LoadLockedReq hits (Count)
system.cpu.dcache.LoadLockedReq.hits::total            3                       # number of LoadLockedReq hits (Count)
system.cpu.dcache.LoadLockedReq.misses::cpu.data            1                       # number of LoadLockedReq misses (Count)
system.cpu.dcache.LoadLockedReq.misses::total            1                       # number of LoadLockedReq misses (Count)
system.cpu.dcache.LoadLockedReq.missLatency::cpu.data        65000                       # number of LoadLockedReq miss ticks (Tick)
system.cpu.dcache.LoadLockedReq.missLatency::total        65000                       # number of LoadLockedReq miss ticks (Tick)
system.cpu.dcache.LoadLockedReq.accesses::cpu.data            4                       # number of LoadLockedReq accesses(hits+misses) (Count)
system.cpu.dcache.LoadLockedReq.accesses::total            4                       # number of LoadLockedReq accesses(hits+misses) (Count)
system.cpu.dcache.LoadLockedReq.missRate::cpu.data     0.250000                       # miss rate for LoadLockedReq accesses (Ratio)
system.cpu.dcache.LoadLockedReq.missRate::total     0.250000                       # miss rate for LoadLockedReq accesses (Ratio)
system.cpu.dcache.LoadLockedReq.avgMissLatency::cpu.data        65000                       # average LoadLockedReq miss latency ((Tick/Count))
system.cpu.dcache.LoadLockedReq.avgMissLatency::total        65000                       # average LoadLockedReq miss latency ((Tick/Count))
system.cpu.dcache.LoadLockedReq.mshrMisses::cpu.data            1                       # number of LoadLockedReq MSHR misses (Count)
system.cpu.dcache.LoadLockedReq.mshrMisses::total            1                       # number of LoadLockedReq MSHR misses (Count)
system.cpu.dcache.LoadLockedReq.mshrMissLatency::cpu.data        64000                       # number of LoadLockedReq MSHR miss ticks (Tick)
system.cpu.dcache.LoadLockedReq.mshrMissLatency::total        64000                       # number of LoadLockedReq MSHR miss ticks (Tick)
system.cpu.dcache.LoadLockedReq.mshrMissRate::cpu.data     0.250000                       # mshr miss rate for LoadLockedReq accesses (Ratio)
system.cpu.dcache.LoadLockedReq.mshrMissRate::total     0.250000                       # mshr miss rate for LoadLockedReq accesses (Ratio)
system.cpu.dcache.LoadLockedReq.avgMshrMissLatency::cpu.data        64000                       # average LoadLockedReq mshr miss latency ((Tick/Count))
system.cpu.dcache.LoadLockedReq.avgMshrMissLatency::total        64000                       # average LoadLockedReq mshr miss latency ((Tick/Count))
system.cpu.dcache.ReadReq.hits::cpu.data      1227312                       # number of ReadReq hits (Count)
system.cpu.dcache.ReadReq.hits::total         1227312                       # number of ReadReq hits (Count)
system.cpu.dcache.ReadReq.misses::cpu.data        14645                       # number of ReadReq misses (Count)
system.cpu.dcache.ReadReq.misses::total         14645                       # number of ReadReq misses (Count)
system.cpu.dcache.ReadReq.missLatency::cpu.data    866763000                       # number of ReadReq miss ticks (Tick)
system.cpu.dcache.ReadReq.missLatency::total    866763000                       # number of ReadReq miss ticks (Tick)
system.cpu.dcache.ReadReq.accesses::cpu.data      1241957                       # number of ReadReq accesses(hits+misses) (Count)
system.cpu.dcache.ReadReq.accesses::total      1241957                       # number of ReadReq accesses(hits+misses) (Count)
system.cpu.dcache.ReadReq.missRate::cpu.data     0.011792                       # miss rate for ReadReq accesses (Ratio)
system.cpu.dcache.ReadReq.missRate::total     0.011792                       # miss rate for ReadReq accesses (Ratio)
system.cpu.dcache.ReadReq.avgMissLatency::cpu.data 59184.909525                       # average ReadReq miss latency ((Tick/Count))
system.cpu.dcache.ReadReq.avgMissLatency::total 59184.909525                       # average ReadReq miss latency ((Tick/Count))
system.cpu.dcache.ReadReq.mshrMisses::cpu.data        14645                       # number of ReadReq MSHR misses (Count)
system.cpu.dcache.ReadReq.mshrMisses::total        14645                       # number of ReadReq MSHR misses (Count)
system.cpu.dcache.ReadReq.mshrMissLatency::cpu.data    852118000                       # number of ReadReq MSHR miss ticks (Tick)
system.cpu.dcache.ReadReq.mshrMissLatency::total    852118000                       # number of ReadReq MSHR miss ticks (Tick)
system.cpu.dcache.ReadReq.mshrMissRate::cpu.data     0.011792                       # mshr miss rate for ReadReq accesses (Ratio)
system.cpu.dcache.ReadReq.mshrMissRate::total     0.011792                       # mshr miss rate for ReadReq accesses (Ratio)
system.cpu.dcache.ReadReq.avgMshrMissLatency::cpu.data 58184.909525                       # average ReadReq mshr miss latency ((Tick/Count))
system.cpu.dcache.ReadReq.avgMshrMissLatency::total 58184.909525                       # average ReadReq mshr miss latency ((Tick/Count))
system.cpu.dcache.StoreCondReq.hits::cpu.data            4                       # number of StoreCondReq hits (Count)
system.cpu.dcache.StoreCondReq.hits::total            4                       # number of StoreCondReq hits (Count)
system.cpu.dcache.StoreCondReq.accesses::cpu.data            4                       # number of StoreCondReq accesses(hits+misses) (Count)
system.cpu.dcache.StoreCondReq.accesses::total            4                       # number of StoreCondReq accesses(hits+misses) (Count)
system.cpu.dcache.SwapReq.hits::cpu.data         9807                       # number of SwapReq hits (Count)
system.cpu.dcache.SwapReq.hits::total            9807                       # number of SwapReq hits (Count)
system.cpu.dcache.SwapReq.misses::cpu.data           39                       # number of SwapReq misses (Count)
system.cpu.dcache.SwapReq.misses::total            39                       # number of SwapReq misses (Count)
system.cpu.dcache.SwapReq.missLatency::cpu.data      2340000                       # number of SwapReq miss ticks (Tick)
system.cpu.dcache.SwapReq.missLatency::total      2340000                       # number of SwapReq miss ticks (Tick)
system.cpu.dcache.SwapReq.accesses::cpu.data         9846                       # number of SwapReq accesses(hits+misses) (Count)
system.cpu.dcache.SwapReq.accesses::total         9846                       # number of SwapReq accesses(hits+misses) (Count)
system.cpu.dcache.SwapReq.missRate::cpu.data     0.003961                       # miss rate for SwapReq accesses (Ratio)
system.cpu.dcache.SwapReq.missRate::total     0.003961                       # miss rate for SwapReq accesses (Ratio)
system.cpu.dcache.SwapReq.avgMissLatency::cpu.data        60000                       # average SwapReq miss latency ((Tick/Count))
system.cpu.dcache.SwapReq.avgMissLatency::total        60000                       # average SwapReq miss latency ((Tick/Count))
system.cpu.dcache.SwapReq.mshrMisses::cpu.data           39                       # number of SwapReq MSHR misses (Count)
system.cpu.dcache.SwapReq.mshrMisses::total           39                       # number of SwapReq MSHR misses (Count)
system.cpu.dcache.SwapReq.mshrMissLatency::cpu.data      2301000                       # number of SwapReq MSHR miss ticks (Tick)
system.cpu.dcache.SwapReq.mshrMissLatency::total      2301000                       # number of SwapReq MSHR miss ticks (Tick)
system.cpu.dcache.SwapReq.mshrMissRate::cpu.data     0.003961                       # mshr miss rate for SwapReq accesses (Ratio)
system.cpu.dcache.SwapReq.mshrMissRate::total     0.003961                       # mshr miss rate for SwapReq accesses (Ratio)
system.cpu.dcache.SwapReq.avgMshrMissLatency::cpu.data        59000                       # average SwapReq mshr miss latency ((Tick/Count))
system.cpu.dcache.SwapReq.avgMshrMissLatency::total        59000                       # average SwapReq mshr miss latency ((Tick/Count))
system.cpu.dcache.WriteLineReq.hits::cpu.data           13                       # number of WriteLineReq hits (Count)
system.cpu.dcache.WriteLineReq.hits::total           13                       # number of WriteLineReq hits (Count)
system.cpu.dcache.WriteLineReq.misses::cpu.data          151                       # number of WriteLineReq misses (Count)
system.cpu.dcache.WriteLineReq.misses::total          151                       # number of WriteLineReq misses (Count)
system.cpu.dcache.WriteLineReq.missLatency::cpu.data      1530000                       # number of WriteLineReq miss ticks (Tick)
system.cpu.dcache.WriteLineReq.missLatency::total      1530000                       # number of WriteLineReq miss ticks (Tick)
system.cpu.dcache.WriteLineReq.accesses::cpu.data          164                       # number of WriteLineReq accesses(hits+misses) (Count)
system.cpu.dcache.WriteLineReq.accesses::total          164                       # number of WriteLineReq accesses(hits+misses) (Count)
system.cpu.dcache.WriteLineReq.missRate::cpu.data     0.920732                       # miss rate for WriteLineReq accesses (Ratio)
system.cpu.dcache.WriteLineReq.missRate::total     0.920732                       # miss rate for WriteLineReq accesses (Ratio)
system.cpu.dcache.WriteLineReq.avgMissLatency::cpu.data 10132.450331                       # average WriteLineReq miss latency ((Tick/Count))
system.cpu.dcache.WriteLineReq.avgMissLatency::total 10132.450331                       # average WriteLineReq miss latency ((Tick/Count))
system.cpu.dcache.WriteLineReq.mshrMisses::cpu.data          151                       # number of WriteLineReq MSHR misses (Count)
system.cpu.dcache.WriteLineReq.mshrMisses::total          151                       # number of WriteLineReq MSHR misses (Count)
system.cpu.dcache.WriteLineReq.mshrMissLatency::cpu.data      1379000                       # number of WriteLineReq MSHR miss ticks (Tick)
system.cpu.dcache.WriteLineReq.mshrMissLatency::total      1379000                       # number of WriteLineReq MSHR miss ticks (Tick)
system.cpu.dcache.WriteLineReq.mshrMissRate::cpu.data     0.920732                       # mshr miss rate for WriteLineReq accesses (Ratio)
system.cpu.dcache.WriteLineReq.mshrMissRate::total     0.920732                       # mshr miss rate for WriteLineReq accesses (Ratio)
system.cpu.dcache.WriteLineReq.avgMshrMissLatency::cpu.data  9132.450331                       # average WriteLineReq mshr miss latency ((Tick/Count))
system.cpu.dcache.WriteLineReq.avgMshrMissLatency::total  9132.450331                       # average WriteLineReq mshr miss latency ((Tick/Count))
system.cpu.dcache.WriteReq.hits::cpu.data       913522                       # number of WriteReq hits (Count)
system.cpu.dcache.WriteReq.hits::total         913522                       # number of WriteReq hits (Count)
system.cpu.dcache.WriteReq.misses::cpu.data         2435                       # number of WriteReq misses (Count)
system.cpu.dcache.WriteReq.misses::total         2435                       # number of WriteReq misses (Count)
system.cpu.dcache.WriteReq.missLatency::cpu.data    152104000                       # number of WriteReq miss ticks (Tick)
system.cpu.dcache.WriteReq.missLatency::total    152104000                       # number of WriteReq miss ticks (Tick)
system.cpu.dcache.WriteReq.accesses::cpu.data       915957                       # number of WriteReq accesses(hits+misses) (Count)
system.cpu.dcache.WriteReq.accesses::total       915957                       # number of WriteReq accesses(hits+misses) (Count)
system.cpu.dcache.WriteReq.missRate::cpu.data     0.002658                       # miss rate for WriteReq accesses (Ratio)
system.cpu.dcache.WriteReq.missRate::total     0.002658                       # miss rate for WriteReq accesses (Ratio)
system.cpu.dcache.WriteReq.avgMissLatency::cpu.data 62465.708419                       # average WriteReq miss latency ((Tick/Count))
system.cpu.dcache.WriteReq.avgMissLatency::total 62465.708419                       # average WriteReq miss latency ((Tick/Count))
system.cpu.dcache.WriteReq.mshrMisses::cpu.data         2435                       # number of WriteReq MSHR misses (Count)
system.cpu.dcache.WriteReq.mshrMisses::total         2435                       # number of WriteReq MSHR misses (Count)
system.cpu.dcache.WriteReq.mshrMissLatency::cpu.data    149669000                       # number of WriteReq MSHR miss ticks (Tick)
system.cpu.dcache.WriteReq.mshrMissLatency::total    149669000                       # number of WriteReq MSHR miss ticks (Tick)
system.cpu.dcache.WriteReq.mshrMissRate::cpu.data     0.002658                       # mshr miss rate for WriteReq accesses (Ratio)
system.cpu.dcache.WriteReq.mshrMissRate::total     0.002658                       # mshr miss rate for WriteReq accesses (Ratio)
system.cpu.dcache.WriteReq.avgMshrMissLatency::cpu.data 61465.708419                       # average WriteReq mshr miss latency ((Tick/Count))
system.cpu.dcache.WriteReq.avgMshrMissLatency::total 61465.708419                       # average WriteReq mshr miss latency ((Tick/Count))
system.cpu.dcache.power_state.pwrStateResidencyTicks::UNDEFINED  11870599000                       # Cumulative time (in ticks) in various power states (Tick)
system.cpu.dcache.tags.tagsInUse          1013.418993                       # Average ticks per tags in use ((Tick/Count))
system.cpu.dcache.tags.totalRefs              2167932                       # Total number of references to valid blocks. (Count)
system.cpu.dcache.tags.sampledRefs              17271                       # Sample count of references to valid blocks. (Count)
system.cpu.dcache.tags.avgRefs             125.524405                       # Average number of references to valid blocks. ((Count/Count))
system.cpu.dcache.tags.warmupTick              150000                       # The tick when the warmup percentage was hit. (Tick)
system.cpu.dcache.tags.occupancies::cpu.data  1013.418993                       # Average occupied blocks per tick, per requestor ((Count/Tick))
system.cpu.dcache.tags.avgOccs::cpu.data     0.989667                       # Average percentage of cache occupancy ((Ratio/Tick))
system.cpu.dcache.tags.avgOccs::total        0.989667                       # Average percentage of cache occupancy ((Ratio/Tick))
system.cpu.dcache.tags.occupanciesTaskId::1024         1024                       # Occupied blocks per task id (Count)
system.cpu.dcache.tags.ageTaskId_1024::0           38                       # Occupied blocks per task id, per block age (Count)
system.cpu.dcache.tags.ageTaskId_1024::1          107                       # Occupied blocks per task id, per block age (Count)
system.cpu.dcache.tags.ageTaskId_1024::2          833                       # Occupied blocks per task id, per block age (Count)
system.cpu.dcache.tags.ageTaskId_1024::3           42                       # Occupied blocks per task id, per block age (Count)
system.cpu.dcache.tags.ageTaskId_1024::4            4                       # Occupied blocks per task id, per block age (Count)
system.cpu.dcache.tags.ratioOccsTaskId::1024            1                       # Ratio of occupied blocks and all blocks, per task id (Ratio)
system.cpu.dcache.tags.tagAccesses            4353135                       # Number of tag accesses (Count)
system.cpu.dcache.tags.dataAccesses           4353135                       # Number of data accesses (Count)
system.cpu.dcache.tags.power_state.pwrStateResidencyTicks::UNDEFINED  11870599000                       # Cumulative time (in ticks) in various power states (Tick)
system.cpu.exec_context.thread_0.numMatAluAccesses            0                       # Number of matrix alu accesses (Count)
system.cpu.exec_context.thread_0.numMatInsts            0                       # Number of matrix instructions (Count)
system.cpu.exec_context.thread_0.numIdleCycles     0.002000                       # Number of idle cycles (Cycle)
system.cpu.exec_context.thread_0.numBusyCycles 23741197.998000                       # Number of busy cycles (Cycle)
system.cpu.exec_context.thread_0.notIdleFraction     1.000000                       # Percentage of non-idle cycles (Ratio)
system.cpu.exec_context.thread_0.idleFraction     0.000000                       # Percentage of idle cycles (Ratio)
system.cpu.executeStats0.numInsts             7634957                       # Number of executed instructions (Count)
system.cpu.executeStats0.numNop                     0                       # Number of nop insts executed (Count)
system.cpu.executeStats0.numBranches          1618573                       # Number of branches executed (Count)
system.cpu.executeStats0.numLoadInsts         1239788                       # Number of load instructions executed (Count)
system.cpu.executeStats0.numStoreInsts         925806                       # Number of stores executed (Count)
system.cpu.executeStats0.instRate            0.321591                       # Inst execution rate ((Count/Cycle))
system.cpu.executeStats0.numCCRegReads        2150695                       # Number of times the CC registers were read (Count)
system.cpu.executeStats0.numCCRegWrites       1950645                       # Number of times the CC registers were written (Count)
system.cpu.executeStats0.numFpRegWrites             0                       # Number of times the floating registers were written (Count)
system.cpu.executeStats0.numIntAluAccesses      8164981                       # Number of integer alu accesses (Count)
system.cpu.executeStats0.numIntRegReads       9314872                       # Number of times the integer registers were read (Count)
system.cpu.executeStats0.numIntRegWrites      6219783                       # Number of times the integer registers were written (Count)
system.cpu.executeStats0.numMemRefs           2165594                       # Number of memory refs (Count)
system.cpu.executeStats0.numMiscRegReads       205375                       # Number of times the Misc registers were read (Count)
system.cpu.executeStats0.numMiscRegWrites        19701                       # Number of times the Misc registers were written (Count)
system.cpu.executeStats0.numVecAluAccesses        75407                       # Number of vector alu accesses (Count)
system.cpu.executeStats0.numVecPredRegReads         8251                       # Number of times the predicate registers were read (Count)
system.cpu.executeStats0.numVecPredRegWrites         2750                       # Number of times the predicate registers were written (Count)
system.cpu.executeStats0.numVecRegReads         64517                       # Number of times the vector registers were read (Count)
system.cpu.executeStats0.numVecRegWrites        24664                       # Number of times the vector registers were written (Count)
system.cpu.executeStats0.numDiscardedOps            0                       # Number of ops (including micro ops) which were discarded before commit (Count)
system.cpu.fetchStats0.numInsts               7635053                       # Number of instructions fetched (thread level) (Count)
system.cpu.fetchStats0.numOps                 8885301                       # Number of ops (including micro ops) fetched (thread level) (Count)
system.cpu.fetchStats0.fetchRate             0.321595                       # Number of inst fetches per cycle ((Count/Cycle))
system.cpu.fetchStats0.numBranches            1618573                       # Number of branches fetched (Count)
system.cpu.fetchStats0.branchRate            0.068176                       # Number of branch fetches per cycle (Ratio)
system.cpu.fetchStats0.numFetchSuspends             0                       # Number of times Execute suspended instruction fetching (Count)
system.cpu.icache.demandHits::cpu.inst        7607989                       # number of demand (read+write) hits (Count)
system.cpu.icache.demandHits::total           7607989                       # number of demand (read+write) hits (Count)
system.cpu.icache.overallHits::cpu.inst       7607989                       # number of overall hits (Count)
system.cpu.icache.overallHits::total          7607989                       # number of overall hits (Count)
system.cpu.icache.demandMisses::cpu.inst        27066                       # number of demand (read+write) misses (Count)
system.cpu.icache.demandMisses::total           27066                       # number of demand (read+write) misses (Count)
system.cpu.icache.overallMisses::cpu.inst        27066                       # number of overall misses (Count)
system.cpu.icache.overallMisses::total          27066                       # number of overall misses (Count)
system.cpu.icache.demandMissLatency::cpu.inst    981741000                       # number of demand (read+write) miss ticks (Tick)
system.cpu.icache.demandMissLatency::total    981741000                       # number of demand (read+write) miss ticks (Tick)
system.cpu.icache.overallMissLatency::cpu.inst    981741000                       # number of overall miss ticks (Tick)
system.cpu.icache.overallMissLatency::total    981741000                       # number of overall miss ticks (Tick)
system.cpu.icache.demandAccesses::cpu.inst      7635055                       # number of demand (read+write) accesses (Count)
system.cpu.icache.demandAccesses::total       7635055                       # number of demand (read+write) accesses (Count)
system.cpu.icache.overallAccesses::cpu.inst      7635055                       # number of overall (read+write) accesses (Count)
system.cpu.icache.overallAccesses::total      7635055                       # number of overall (read+write) accesses (Count)
system.cpu.icache.demandMissRate::cpu.inst     0.003545                       # miss rate for demand accesses (Ratio)
system.cpu.icache.demandMissRate::total      0.003545                       # miss rate for demand accesses (Ratio)
system.cpu.icache.overallMissRate::cpu.inst     0.003545                       # miss rate for overall accesses (Ratio)
system.cpu.icache.overallMissRate::total     0.003545                       # miss rate for overall accesses (Ratio)
system.cpu.icache.demandAvgMissLatency::cpu.inst 36272.112614                       # average overall miss latency in ticks ((Tick/Count))
system.cpu.icache.demandAvgMissLatency::total 36272.112614                       # average overall miss latency in ticks ((Tick/Count))
system.cpu.icache.overallAvgMissLatency::cpu.inst 36272.112614                       # average overall miss latency ((Tick/Count))
system.cpu.icache.overallAvgMissLatency::total 36272.112614                       # average overall miss latency ((Tick/Count))
system.cpu.icache.blockedCycles::no_mshrs            0                       # number of cycles access was blocked (Cycle)
system.cpu.icache.blockedCycles::no_wbuffers            0                       # number of cycles access was blocked (Cycle)
system.cpu.icache.blockedCycles::no_targets            0                       # number of cycles access was blocked (Cycle)
system.cpu.icache.blockedCauses::no_mshrs            0                       # number of times access was blocked (Count)
system.cpu.icache.blockedCauses::no_wbuffers            0                       # number of times access was blocked (Count)
system.cpu.icache.blockedCauses::no_targets            0                       # number of times access was blocked (Count)
system.cpu.icache.avgBlocked::no_mshrs            nan                       # average number of cycles each access was blocked ((Cycle/Count))
system.cpu.icache.avgBlocked::no_wbuffers          nan                       # average number of cycles each access was blocked ((Cycle/Count))
system.cpu.icache.avgBlocked::no_targets          nan                       # average number of cycles each access was blocked ((Cycle/Count))
system.cpu.icache.writebacks::writebacks        26555                       # number of writebacks (Count)
system.cpu.icache.writebacks::total             26555                       # number of writebacks (Count)
system.cpu.icache.demandMshrMisses::cpu.inst        27066                       # number of demand (read+write) MSHR misses (Count)
system.cpu.icache.demandMshrMisses::total        27066                       # number of demand (read+write) MSHR misses (Count)
system.cpu.icache.overallMshrMisses::cpu.inst        27066                       # number of overall MSHR misses (Count)
system.cpu.icache.overallMshrMisses::total        27066                       # number of overall MSHR misses (Count)
system.cpu.icache.demandMshrMissLatency::cpu.inst    954675000                       # number of demand (read+write) MSHR miss ticks (Tick)
system.cpu.icache.demandMshrMissLatency::total    954675000                       # number of demand (read+write) MSHR miss ticks (Tick)
system.cpu.icache.overallMshrMissLatency::cpu.inst    954675000                       # number of overall MSHR miss ticks (Tick)
system.cpu.icache.overallMshrMissLatency::total    954675000                       # number of overall MSHR miss ticks (Tick)
system.cpu.icache.demandMshrMissRate::cpu.inst     0.003545                       # mshr miss ratio for demand accesses (Ratio)
system.cpu.icache.demandMshrMissRate::total     0.003545                       # mshr miss ratio for demand accesses (Ratio)
system.cpu.icache.overallMshrMissRate::cpu.inst     0.003545                       # mshr miss ratio for overall accesses (Ratio)
system.cpu.icache.overallMshrMissRate::total     0.003545                       # mshr miss ratio for overall accesses (Ratio)
system.cpu.icache.demandAvgMshrMissLatency::cpu.inst 35272.112614                       # average overall mshr miss latency ((Tick/Count))
system.cpu.icache.demandAvgMshrMissLatency::total 35272.112614                       # average overall mshr miss latency ((Tick/Count))
system.cpu.icache.overallAvgMshrMissLatency::cpu.inst 35272.112614                       # average overall mshr miss latency ((Tick/Count))
system.cpu.icache.overallAvgMshrMissLatency::total 35272.112614                       # average overall mshr miss latency ((Tick/Count))
system.cpu.icache.replacements                  26555                       # number of replacements (Count)
system.cpu.icache.ReadReq.hits::cpu.inst      7607989                       # number of ReadReq hits (Count)
system.cpu.icache.ReadReq.hits::total         7607989                       # number of ReadReq hits (Count)
system.cpu.icache.ReadReq.misses::cpu.inst        27066                       # number of ReadReq misses (Count)
system.cpu.icache.ReadReq.misses::total         27066                       # number of ReadReq misses (Count)
system.cpu.icache.ReadReq.missLatency::cpu.inst    981741000                       # number of ReadReq miss ticks (Tick)
system.cpu.icache.ReadReq.missLatency::total    981741000                       # number of ReadReq miss ticks (Tick)
system.cpu.icache.ReadReq.accesses::cpu.inst      7635055                       # number of ReadReq accesses(hits+misses) (Count)
system.cpu.icache.ReadReq.accesses::total      7635055                       # number of ReadReq accesses(hits+misses) (Count)
system.cpu.icache.ReadReq.missRate::cpu.inst     0.003545                       # miss rate for ReadReq accesses (Ratio)
system.cpu.icache.ReadReq.missRate::total     0.003545                       # miss rate for ReadReq accesses (Ratio)
system.cpu.icache.ReadReq.avgMissLatency::cpu.inst 36272.112614                       # average ReadReq miss latency ((Tick/Count))
system.cpu.icache.ReadReq.avgMissLatency::total 36272.112614                       # average ReadReq miss latency ((Tick/Count))
system.cpu.icache.ReadReq.mshrMisses::cpu.inst        27066                       # number of ReadReq MSHR misses (Count)
system.cpu.icache.ReadReq.mshrMisses::total        27066                       # number of ReadReq MSHR misses (Count)
system.cpu.icache.ReadReq.mshrMissLatency::cpu.inst    954675000                       # number of ReadReq MSHR miss ticks (Tick)
system.cpu.icache.ReadReq.mshrMissLatency::total    954675000                       # number of ReadReq MSHR miss ticks (Tick)
system.cpu.icache.ReadReq.mshrMissRate::cpu.inst     0.003545                       # mshr miss rate for ReadReq accesses (Ratio)
system.cpu.icache.ReadReq.mshrMissRate::total     0.003545                       # mshr miss rate for ReadReq accesses (Ratio)
system.cpu.icache.ReadReq.avgMshrMissLatency::cpu.inst 35272.112614                       # average ReadReq mshr miss latency ((Tick/Count))
system.cpu.icache.ReadReq.avgMshrMissLatency::total 35272.112614                       # average ReadReq mshr miss latency ((Tick/Count))
system.cpu.icache.power_state.pwrStateResidencyTicks::UNDEFINED  11870599000                       # Cumulative time (in ticks) in various power states (Tick)
system.cpu.icache.tags.tagsInUse           449.139567                       # Average ticks per tags in use ((Tick/Count))
system.cpu.icache.tags.totalRefs              7635055                       # Total number of references to valid blocks. (Count)
system.cpu.icache.tags.sampledRefs              27066                       # Sample count of references to valid blocks. (Count)
system.cpu.icache.tags.avgRefs             282.090261                       # Average number of references to valid blocks. ((Count/Count))
system.cpu.icache.tags.warmupTick               77000                       # The tick when the warmup percentage was hit. (Tick)
system.cpu.icache.tags.occupancies::cpu.inst   449.139567                       # Average occupied blocks per tick, per requestor ((Count/Tick))
system.cpu.icache.tags.avgOccs::cpu.inst     0.877226                       # Average percentage of cache occupancy ((Ratio/Tick))
system.cpu.icache.tags.avgOccs::total        0.877226                       # Average percentage of cache occupancy ((Ratio/Tick))
system.cpu.icache.tags.occupanciesTaskId::1024          511                       # Occupied blocks per task id (Count)
system.cpu.icache.tags.ageTaskId_1024::0           80                       # Occupied blocks per task id, per block age (Count)
system.cpu.icache.tags.ageTaskId_1024::1           11                       # Occupied blocks per task id, per block age (Count)
system.cpu.icache.tags.ageTaskId_1024::2           66                       # Occupied blocks per task id, per block age (Count)
system.cpu.icache.tags.ageTaskId_1024::3          345                       # Occupied blocks per task id, per block age (Count)
system.cpu.icache.tags.ageTaskId_1024::4            9                       # Occupied blocks per task id, per block age (Count)
system.cpu.icache.tags.ratioOccsTaskId::1024     0.998047                       # Ratio of occupied blocks and all blocks, per task id (Ratio)
system.cpu.icache.tags.tagAccesses           15297176                       # Number of tag accesses (Count)
system.cpu.icache.tags.dataAccesses          15297176                       # Number of data accesses (Count)
system.cpu.icache.tags.power_state.pwrStateResidencyTicks::UNDEFINED  11870599000                       # Cumulative time (in ticks) in various power states (Tick)
system.cpu.mmu.alignFaults                          0                       # Number of MMU faults due to alignment restrictions (Count)
system.cpu.mmu.prefetchFaults                       0                       # Number of MMU faults due to prefetch (Count)
system.cpu.mmu.domainFaults                         0                       # Number of MMU faults due to domain restrictions (Count)
system.cpu.mmu.permsFaults                          0                       # Number of MMU faults due to permissions restrictions (Count)
system.cpu.mmu.dtb.readHits                         0                       # Read hits (Count)
system.cpu.mmu.dtb.readMisses                       0                       # Read misses (Count)
system.cpu.mmu.dtb.writeHits                        0                       # Write hits (Count)
system.cpu.mmu.dtb.writeMisses                      0                       # Write misses (Count)
system.cpu.mmu.dtb.inserts                          0                       # Number of times an entry is inserted into the TLB (Count)
system.cpu.mmu.dtb.flushTlb                         0                       # Number of times a TLB invalidation was requested (Count)
system.cpu.mmu.dtb.flushedEntries                   0                       # Number of entries that have been flushed from TLB (Count)
system.cpu.mmu.dtb.readAccesses                     0                       # Read accesses (Count)
system.cpu.mmu.dtb.writeAccesses                    0                       # Write accesses (Count)
system.cpu.mmu.dtb.hits                             0                       # Total TLB (inst and data) hits (Count)
system.cpu.mmu.dtb.misses                           0                       # Total TLB (inst and data) misses (Count)
system.cpu.mmu.dtb.accesses                         0                       # Total TLB (inst and data) accesses (Count)
system.cpu.mmu.itb.instHits                         0                       # Inst hits (Count)
system.cpu.mmu.itb.instMisses                       0                       # Inst misses (Count)
system.cpu.mmu.itb.inserts                          0                       # Number of times an entry is inserted into the TLB (Count)
system.cpu.mmu.itb.flushTlb                         0                       # Number of times a TLB invalidation was requested (Count)
system.cpu.mmu.itb.flushedEntries                   0                       # Number of entries that have been flushed from TLB (Count)
system.cpu.mmu.itb.instAccesses                     0                       # Inst accesses (Count)
system.cpu.mmu.itb.hits                             0                       # Total TLB (inst and data) hits (Count)
system.cpu.mmu.itb.misses                           0                       # Total TLB (inst and data) misses (Count)
system.cpu.mmu.itb.accesses                         0                       # Total TLB (inst and data) accesses (Count)
system.cpu.mmu.l2_shared.instHits                   0                       # Inst hits (Count)
system.cpu.mmu.l2_shared.instMisses                 0                       # Inst misses (Count)
system.cpu.mmu.l2_shared.inserts                    0                       # Number of times an entry is inserted into the TLB (Count)
system.cpu.mmu.l2_shared.flushTlb                   0                       # Number of times a TLB invalidation was requested (Count)
system.cpu.mmu.l2_shared.flushedEntries             0                       # Number of entries that have been flushed from TLB (Count)
system.cpu.mmu.l2_shared.instAccesses               0                       # Inst accesses (Count)
system.cpu.mmu.l2_shared.hits                       0                       # Total TLB (inst and data) hits (Count)
system.cpu.mmu.l2_shared.misses                     0                       # Total TLB (inst and data) misses (Count)
system.cpu.mmu.l2_shared.accesses                   0                       # Total TLB (inst and data) accesses (Count)
system.cpu.mmu.stage2_dtb.readHits                  0                       # Read hits (Count)
system.cpu.mmu.stage2_dtb.readMisses                0                       # Read misses (Count)
system.cpu.mmu.stage2_dtb.writeHits                 0                       # Write hits (Count)
system.cpu.mmu.stage2_dtb.writeMisses               0                       # Write misses (Count)
system.cpu.mmu.stage2_dtb.inserts                   0                       # Number of times an entry is inserted into the TLB (Count)
system.cpu.mmu.stage2_dtb.flushTlb                  0                       # Number of times a TLB invalidation was requested (Count)
system.cpu.mmu.stage2_dtb.flushedEntries            0                       # Number of entries that have been flushed from TLB (Count)
system.cpu.mmu.stage2_dtb.readAccesses              0                       # Read accesses (Count)
system.cpu.mmu.stage2_dtb.writeAccesses             0                       # Write accesses (Count)
system.cpu.mmu.stage2_dtb.hits                      0                       # Total TLB (inst and data) hits (Count)
system.cpu.mmu.stage2_dtb.misses                    0                       # Total TLB (inst and data) misses (Count)
system.cpu.mmu.stage2_dtb.accesses                  0                       # Total TLB (inst and data) accesses (Count)
system.cpu.mmu.stage2_itb.instHits                  0                       # Inst hits (Count)
system.cpu.mmu.stage2_itb.instMisses                0                       # Inst misses (Count)
system.cpu.mmu.stage2_itb.inserts                   0                       # Number of times an entry is inserted into the TLB (Count)
system.cpu.mmu.stage2_itb.flushTlb                  0                       # Number of times a TLB invalidation was requested (Count)
system.cpu.mmu.stage2_itb.flushedEntries            0                       # Number of entries that have been flushed from TLB (Count)
system.cpu.mmu.stage2_itb.instAccesses              0                       # Inst accesses (Count)
system.cpu.mmu.stage2_itb.hits                      0                       # Total TLB (inst and data) hits (Count)
system.cpu.mmu.stage2_itb.misses                    0                       # Total TLB (inst and data) misses (Count)
system.cpu.mmu.stage2_itb.accesses                  0                       # Total TLB (inst and data) accesses (Count)
system.cpu.mmu.walker.instructionWalksS1            0                       # Table walker stage 1 instruction walks requested (Count)
system.cpu.mmu.walker.instructionWalksS2            0                       # Table walker stage 2 instruction walks requested (Count)
system.cpu.mmu.walker.dataWalksS1                   0                       # Table walker stage 1 data walks requested (Count)
system.cpu.mmu.walker.dataWalksS2                   0                       # Table walker stage 2 data walks requested (Count)
system.cpu.mmu.walker.requestOrigin_Requested::Data            0                       # Table walker requests started/completed, data/inst (Count)
system.cpu.mmu.walker.requestOrigin_Requested::Inst            0                       # Table walker requests started/completed, data/inst (Count)
system.cpu.mmu.walker.requestOrigin_Requested::total            0                       # Table walker requests started/completed, data/inst (Count)
system.cpu.mmu.walker.requestOrigin_Completed::Data            0                       # Table walker requests started/completed, data/inst (Count)
system.cpu.mmu.walker.requestOrigin_Completed::Inst            0                       # Table walker requests started/completed, data/inst (Count)
system.cpu.mmu.walker.requestOrigin_Completed::total            0                       # Table walker requests started/completed, data/inst (Count)
system.cpu.mmu.walker.requestOrigin::total            0                       # Table walker requests started/completed, data/inst (Count)
system.cpu.mmu.walker.walks                         0                       # Table walker walks requested (Count)
system.cpu.mmu.walker.power_state.pwrStateResidencyTicks::UNDEFINED  11870599000                       # Cumulative time (in ticks) in various power states (Tick)
system.cpu.mmu.walker.walk_unit_func_s1.power_state.pwrStateResidencyTicks::UNDEFINED  11870599000                       # Cumulative time (in ticks) in various power states (Tick)
system.cpu.mmu.walker.walk_unit_func_s2.power_state.pwrStateResidencyTicks::UNDEFINED  11870599000                       # Cumulative time (in ticks) in various power states (Tick)
system.cpu.mmu.walker.walk_units0.power_state.pwrStateResidencyTicks::UNDEFINED  11870599000                       # Cumulative time (in ticks) in various power states (Tick)
system.cpu.mmu.walker.walk_units1.power_state.pwrStateResidencyTicks::UNDEFINED  11870599000                       # Cumulative time (in ticks) in various power states (Tick)
system.cpu.mmu.walker.walk_units2.power_state.pwrStateResidencyTicks::UNDEFINED  11870599000                       # Cumulative time (in ticks) in various power states (Tick)
system.cpu.mmu.walker.walk_units3.power_state.pwrStateResidencyTicks::UNDEFINED  11870599000                       # Cumulative time (in ticks) in various power states (Tick)
system.cpu.mmu.walker.walk_units4.power_state.pwrStateResidencyTicks::UNDEFINED  11870599000                       # Cumulative time (in ticks) in various power states (Tick)
system.cpu.mmu.walker.walk_units5.power_state.pwrStateResidencyTicks::UNDEFINED  11870599000                       # Cumulative time (in ticks) in various power states (Tick)
system.cpu.mmu.walker.walk_units6.power_state.pwrStateResidencyTicks::UNDEFINED  11870599000                       # Cumulative time (in ticks) in various power states (Tick)
system.cpu.mmu.walker.walk_units7.power_state.pwrStateResidencyTicks::UNDEFINED  11870599000                       # Cumulative time (in ticks) in various power states (Tick)
system.cpu.power_state.pwrStateResidencyTicks::ON  11870599000                       # Cumulative time (in ticks) in various power states (Tick)
system.cpu.thread_0.numInsts                  7634957                       # Number of Instructions committed (Count)
system.cpu.thread_0.numOps                    8885203                       # Number of Ops committed (Count)
system.cpu.thread_0.numMemRefs                2165594                       # Number of Memory References (Count)
system.cpu.workload.numSyscalls                    58                       # Number of system calls (Count)
system.cpu_clk_domain.clock                       500                       # Clock period in ticks (Tick)
system.cpu_voltage_domain.voltage                   1                       # Voltage in Volts (Volt)
system.mem_ctrls.avgPriority_writebacks::samples     17471.00                       # Average QoS priority value for accepted requests (Count)
system.mem_ctrls.avgPriority_cpu.inst::samples      9334.00                       # Average QoS priority value for accepted requests (Count)
system.mem_ctrls.avgPriority_cpu.data::samples     16958.00                       # Average QoS priority value for accepted requests (Count)
system.mem_ctrls.priorityMinLatency      0.000000018750                       # per QoS priority minimum request to response latency (Second)
system.mem_ctrls.priorityMaxLatency      0.003243048500                       # per QoS priority maximum request to response latency (Second)
system.mem_ctrls.numReadWriteTurnArounds         1015                       # Number of turnarounds from READ to WRITE (Count)
system.mem_ctrls.numWriteReadTurnArounds         1015                       # Number of turnarounds from WRITE to READ (Count)
system.mem_ctrls.numStayReadState               85417                       # Number of times bus staying in READ state (Count)
system.mem_ctrls.numStayWriteState              16443                       # Number of times bus staying in WRITE state (Count)
system.mem_ctrls.readReqs                       44186                       # Number of read requests accepted (Count)
system.mem_ctrls.writeReqs                      30443                       # Number of write requests accepted (Count)
system.mem_ctrls.readBursts                     44186                       # Number of controller read bursts, including those serviced by the write queue (Count)
[...]
system.mem_ctrls.dram.bwRead::cpu.inst      145925576                       # Total read bandwidth from this memory ((Byte/Second))
system.mem_ctrls.dram.bwRead::cpu.data       92301998                       # Total read bandwidth from this memory ((Byte/Second))
system.mem_ctrls.dram.bwRead::total         238227574                       # Total read bandwidth from this memory ((Byte/Second))
system.mem_ctrls.dram.bwInstRead::cpu.inst    145925576                       # Instruction read bandwidth from this memory ((Byte/Second))
system.mem_ctrls.dram.bwInstRead::total     145925576                       # Instruction read bandwidth from this memory ((Byte/Second))
system.mem_ctrls.dram.bwWrite::writebacks     20962042                       # Write bandwidth from this memory ((Byte/Second))
system.mem_ctrls.dram.bwWrite::total         20962042                       # Write bandwidth from this memory ((Byte/Second))
system.mem_ctrls.dram.bwTotal::writebacks     20962042                       # Total bandwidth to/from this memory ((Byte/Second))
system.mem_ctrls.dram.bwTotal::cpu.inst     145925576                       # Total bandwidth to/from this memory ((Byte/Second))
system.mem_ctrls.dram.bwTotal::cpu.data      92301998                       # Total bandwidth to/from this memory ((Byte/Second))
system.mem_ctrls.dram.bwTotal::total        259189616                       # Total bandwidth to/from this memory ((Byte/Second))
system.mem_ctrls.dram.readBursts                26292                       # Number of DRAM read bursts (Count)
system.mem_ctrls.dram.writeBursts               17452                       # Number of DRAM write bursts (Count)
system.mem_ctrls.dram.perBankRdBursts::0         1566                       # Per bank write bursts (Count)
system.mem_ctrls.dram.perBankRdBursts::1         1285                       # Per bank write bursts (Count)
system.mem_ctrls.dram.perBankRdBursts::2         1252                       # Per bank write bursts (Count)
system.mem_ctrls.dram.perBankRdBursts::3         1568                       # Per bank write bursts (Count)
system.mem_ctrls.dram.perBankRdBursts::4         1394                       # Per bank write bursts (Count)
system.mem_ctrls.dram.perBankRdBursts::5         1280                       # Per bank write bursts (Count)
system.mem_ctrls.dram.perBankRdBursts::6         2131                       # Per bank write bursts (Count)
system.mem_ctrls.dram.perBankRdBursts::7         1559                       # Per bank write bursts (Count)
system.mem_ctrls.dram.perBankRdBursts::8         1986                       # Per bank write bursts (Count)
system.mem_ctrls.dram.perBankRdBursts::9         1713                       # Per bank write bursts (Count)
system.mem_ctrls.dram.perBankRdBursts::10         3003                       # Per bank write bursts (Count)
system.mem_ctrls.dram.perBankRdBursts::11         1486                       # Per bank write bursts (Count)
system.mem_ctrls.dram.perBankRdBursts::12         1338                       # Per bank write bursts (Count)
system.mem_ctrls.dram.perBankRdBursts::13         1213                       # Per bank write bursts (Count)
system.mem_ctrls.dram.perBankRdBursts::14         1801                       # Per bank write bursts (Count)
system.mem_ctrls.dram.perBankRdBursts::15         1717                       # Per bank write bursts (Count)
system.mem_ctrls.dram.perBankWrBursts::0         1192                       # Per bank write bursts (Count)
system.mem_ctrls.dram.perBankWrBursts::1          307                       # Per bank write bursts (Count)
system.mem_ctrls.dram.perBankWrBursts::2          376                       # Per bank write bursts (Count)
system.mem_ctrls.dram.perBankWrBursts::3          934                       # Per bank write bursts (Count)
system.mem_ctrls.dram.perBankWrBursts::4          498                       # Per bank write bursts (Count)
system.mem_ctrls.dram.perBankWrBursts::5          580                       # Per bank write bursts (Count)
system.mem_ctrls.dram.perBankWrBursts::6         2163                       # Per bank write bursts (Count)
system.mem_ctrls.dram.perBankWrBursts::7         1025                       # Per bank write bursts (Count)
system.mem_ctrls.dram.perBankWrBursts::8         2031                       # Per bank write bursts (Count)
system.mem_ctrls.dram.perBankWrBursts::9         1425                       # Per bank write bursts (Count)
system.mem_ctrls.dram.perBankWrBursts::10         2504                       # Per bank write bursts (Count)
system.mem_ctrls.dram.perBankWrBursts::11          579                       # Per bank write bursts (Count)
system.mem_ctrls.dram.perBankWrBursts::12          409                       # Per bank write bursts (Count)
system.mem_ctrls.dram.perBankWrBursts::13          346                       # Per bank write bursts (Count)
system.mem_ctrls.dram.perBankWrBursts::14         2131                       # Per bank write bursts (Count)
system.mem_ctrls.dram.perBankWrBursts::15          952                       # Per bank write bursts (Count)
system.mem_ctrls.dram.totQLat               264162750                       # Total ticks spent queuing (Tick)
system.mem_ctrls.dram.totBusLat             131460000                       # Total ticks spent in databus transfers (Tick)
system.mem_ctrls.dram.totMemAccLat          757137750                       # Total ticks spent from burst creation until serviced by the DRAM (Tick)
system.mem_ctrls.dram.avgQLat                10047.27                       # Average queueing delay per DRAM burst ((Tick/Count))
system.mem_ctrls.dram.avgBusLat               5000.00                       # Average bus latency per DRAM burst ((Tick/Count))
system.mem_ctrls.dram.avgMemAccLat           28797.27                       # Average memory access latency per DRAM burst ((Tick/Count))
system.mem_ctrls.dram.readRowHits               18714                       # Number of row buffer hits during reads (Count)
system.mem_ctrls.dram.writeRowHits              12057                       # Number of row buffer hits during writes (Count)
system.mem_ctrls.dram.readRowHitRate            71.18                       # Row buffer hit rate for reads (Ratio)
system.mem_ctrls.dram.writeRowHitRate           69.09                       # Row buffer hit rate for writes (Ratio)
system.mem_ctrls.dram.bytesPerActivate::samples        12961                       # Bytes accessed per row activation (Byte)
system.mem_ctrls.dram.bytesPerActivate::mean   215.919142                       # Bytes accessed per row activation (Byte)
system.mem_ctrls.dram.bytesPerActivate::gmean   147.953617                       # Bytes accessed per row activation (Byte)
system.mem_ctrls.dram.bytesPerActivate::stdev   225.571643                       # Bytes accessed per row activation (Byte)
system.mem_ctrls.dram.bytesPerActivate::0-127         4808     37.10%     37.10% # Bytes accessed per row activation (Byte)
system.mem_ctrls.dram.bytesPerActivate::128-255         4413     34.05%     71.14% # Bytes accessed per row activation (Byte)
system.mem_ctrls.dram.bytesPerActivate::256-383         1622     12.51%     83.66% # Bytes accessed per row activation (Byte)
system.mem_ctrls.dram.bytesPerActivate::384-511          776      5.99%     89.65% # Bytes accessed per row activation (Byte)
system.mem_ctrls.dram.bytesPerActivate::512-639          447      3.45%     93.09% # Bytes accessed per row activation (Byte)
system.mem_ctrls.dram.bytesPerActivate::640-767          215      1.66%     94.75% # Bytes accessed per row activation (Byte)
system.mem_ctrls.dram.bytesPerActivate::768-895          119      0.92%     95.67% # Bytes accessed per row activation (Byte)
system.mem_ctrls.dram.bytesPerActivate::896-1023           60      0.46%     96.13% # Bytes accessed per row activation (Byte)
system.mem_ctrls.dram.bytesPerActivate::1024-1151          501      3.87%    100.00% # Bytes accessed per row activation (Byte)
system.mem_ctrls.dram.bytesPerActivate::total        12961                       # Bytes accessed per row activation (Byte)
system.mem_ctrls.dram.dramBytesRead           1682688                       # Total bytes read (Byte)
system.mem_ctrls.dram.dramBytesWritten        1116928                       # Total bytes written (Byte)
system.mem_ctrls.dram.avgRdBW              141.752577                       # Average DRAM read bandwidth in MiBytes/s ((Byte/Second))
system.mem_ctrls.dram.avgWrBW               94.091966                       # Average DRAM write bandwidth in MiBytes/s ((Byte/Second))
system.mem_ctrls.dram.peakBW                 12800.00                       # Theoretical peak bandwidth in MiByte/s ((Byte/Second))
system.mem_ctrls.dram.busUtil                    1.84                       # Data bus utilization in percentage (Ratio)
system.mem_ctrls.dram.busUtilRead                1.11                       # Data bus utilization in percentage for reads (Ratio)
system.mem_ctrls.dram.busUtilWrite               0.74                       # Data bus utilization in percentage for writes (Ratio)
system.mem_ctrls.dram.pageHitRate               70.34                       # Row buffer hit rate, read and write combined (Ratio)
system.mem_ctrls.dram.power_state.pwrStateResidencyTicks::UNDEFINED  11870599000                       # Cumulative time (in ticks) in various power states (Tick)
system.mem_ctrls.dram.rank0.actEnergy        41983200                       # Energy for activate commands per rank (pJ) (Joule)
system.mem_ctrls.dram.rank0.preEnergy        22291830                       # Energy for precharge commands per rank (pJ) (Joule)
system.mem_ctrls.dram.rank0.readEnergy       85929900                       # Energy for read commands per rank (pJ) (Joule)
system.mem_ctrls.dram.rank0.writeEnergy      36931500                       # Energy for write commands per rank (pJ) (Joule)
system.mem_ctrls.dram.rank0.refreshEnergy 936711360.000000                       # Energy for refresh commands per rank (pJ) (Joule)
system.mem_ctrls.dram.rank0.actBackEnergy   3151308270                       # Energy for active background per rank (pJ) (Joule)
system.mem_ctrls.dram.rank0.preBackEnergy   1904577120                       # Energy for precharge background per rank (pJ) (Joule)
system.mem_ctrls.dram.rank0.actPowerDownEnergy            0                       # Energy for active power-down per rank (pJ) (Joule)
system.mem_ctrls.dram.rank0.prePowerDownEnergy            0                       # Energy for precharge power-down per rank (pJ) (Joule)
system.mem_ctrls.dram.rank0.selfRefreshEnergy            0                       # Energy for self refresh per rank (pJ) (Joule)
system.mem_ctrls.dram.rank0.totalEnergy    6179733180                       # Total energy per rank (pJ) (Joule)
system.mem_ctrls.dram.rank0.averagePower   520.591520                       # Core power per rank (mW) (Watt)
system.mem_ctrls.dram.rank0.totalIdleTime            0                       # Total Idle time Per DRAM Rank (Tick)
system.mem_ctrls.dram.rank0.pwrStateTime::IDLE   4918248250                       # Time in different power states (Tick)
system.mem_ctrls.dram.rank0.pwrStateTime::REF    396240000                       # Time in different power states (Tick)
system.mem_ctrls.dram.rank0.pwrStateTime::SREF            0                       # Time in different power states (Tick)
system.mem_ctrls.dram.rank0.pwrStateTime::PRE_PDN            0                       # Time in different power states (Tick)
system.mem_ctrls.dram.rank0.pwrStateTime::ACT   6556110750                       # Time in different power states (Tick)
system.mem_ctrls.dram.rank0.pwrStateTime::ACT_PDN            0                       # Time in different power states (Tick)
system.mem_ctrls.dram.rank1.actEnergy        50644020                       # Energy for activate commands per rank (pJ) (Joule)
system.mem_ctrls.dram.rank1.preEnergy        26895165                       # Energy for precharge commands per rank (pJ) (Joule)
system.mem_ctrls.dram.rank1.readEnergy      101794980                       # Energy for read commands per rank (pJ) (Joule)
system.mem_ctrls.dram.rank1.writeEnergy      54167940                       # Energy for write commands per rank (pJ) (Joule)
system.mem_ctrls.dram.rank1.refreshEnergy 936711360.000000                       # Energy for refresh commands per rank (pJ) (Joule)
system.mem_ctrls.dram.rank1.actBackEnergy   3506726640                       # Energy for active background per rank (pJ) (Joule)
system.mem_ctrls.dram.rank1.preBackEnergy   1605277440                       # Energy for precharge background per rank (pJ) (Joule)
system.mem_ctrls.dram.rank1.actPowerDownEnergy            0                       # Energy for active power-down per rank (pJ) (Joule)
system.mem_ctrls.dram.rank1.prePowerDownEnergy            0                       # Energy for precharge power-down per rank (pJ) (Joule)
system.mem_ctrls.dram.rank1.selfRefreshEnergy            0                       # Energy for self refresh per rank (pJ) (Joule)
system.mem_ctrls.dram.rank1.totalEnergy    6282217545                       # Total energy per rank (pJ) (Joule)
system.mem_ctrls.dram.rank1.averagePower   529.224982                       # Core power per rank (mW) (Watt)
system.mem_ctrls.dram.rank1.totalIdleTime            0                       # Total Idle time Per DRAM Rank (Tick)
system.mem_ctrls.dram.rank1.pwrStateTime::IDLE   4139217750                       # Time in different power states (Tick)
system.mem_ctrls.dram.rank1.pwrStateTime::REF    396240000                       # Time in different power states (Tick)
system.mem_ctrls.dram.rank1.pwrStateTime::SREF            0                       # Time in different power states (Tick)
system.mem_ctrls.dram.rank1.pwrStateTime::PRE_PDN            0                       # Time in different power states (Tick)
system.mem_ctrls.dram.rank1.pwrStateTime::ACT   7335141250                       # Time in different power states (Tick)
system.mem_ctrls.dram.rank1.pwrStateTime::ACT_PDN            0                       # Time in different power states (Tick)
system.mem_ctrls.power_state.pwrStateResidencyTicks::UNDEFINED  11870599000                       # Cumulative time (in ticks) in various power states (Tick)
system.membus.transDist::ReadResp               41712                       # Transaction distribution (Count)
system.membus.transDist::WritebackDirty          3888                       # Transaction distribution (Count)
system.membus.transDist::WritebackClean         26555                       # Transaction distribution (Count)
system.membus.transDist::CleanEvict             12359                       # Transaction distribution (Count)
system.membus.transDist::ReadExReq               2474                       # Transaction distribution (Count)
system.membus.transDist::ReadExResp              2474                       # Transaction distribution (Count)
system.membus.transDist::ReadCleanReq           27066                       # Transaction distribution (Count)
system.membus.transDist::ReadSharedReq          14646                       # Transaction distribution (Count)
system.membus.transDist::InvalidateReq            151                       # Transaction distribution (Count)
system.membus.pktCount_system.cpu.icache.mem_side_port::system.mem_ctrls.port        80687                       # Packet count per connected requestor and responder (Count)
system.membus.pktCount_system.cpu.dcache.mem_side_port::system.mem_ctrls.port        50638                       # Packet count per connected requestor and responder (Count)
system.membus.pktCount::total                  131325                       # Packet count per connected requestor and responder (Count)
system.membus.pktSize_system.cpu.icache.mem_side_port::system.mem_ctrls.port      3431744                       # Cumulative packet size per connected requestor and responder (Byte)
system.membus.pktSize_system.cpu.dcache.mem_side_port::system.mem_ctrls.port      1344512                       # Cumulative packet size per connected requestor and responder (Byte)
system.membus.pktSize::total                  4776256                       # Cumulative packet size per connected requestor and responder (Byte)
system.membus.snoops                                0                       # Total snoops (Count)
system.membus.snoopTraffic                          0                       # Total snoop traffic (Byte)
system.membus.snoopFanout::samples              44337                       # Request fanout histogram (Count)
system.membus.snoopFanout::mean              0.000023                       # Request fanout histogram (Count)
system.membus.snoopFanout::stdev             0.004749                       # Request fanout histogram (Count)
system.membus.snoopFanout::underflows               0      0.00%      0.00% # Request fanout histogram (Count)
system.membus.snoopFanout::0                    44336    100.00%    100.00% # Request fanout histogram (Count)
system.membus.snoopFanout::1                        1      0.00%    100.00% # Request fanout histogram (Count)
system.membus.snoopFanout::2                        0      0.00%    100.00% # Request fanout histogram (Count)
system.membus.snoopFanout::overflows                0      0.00%    100.00% # Request fanout histogram (Count)
system.membus.snoopFanout::min_value                0                       # Request fanout histogram (Count)
system.membus.snoopFanout::max_value                1                       # Request fanout histogram (Count)
system.membus.snoopFanout::total                44337                       # Request fanout histogram (Count)
system.membus.power_state.pwrStateResidencyTicks::UNDEFINED  11870599000                       # Cumulative time (in ticks) in various power states (Tick)
system.membus.reqLayer0.occupancy           209879000                       # Layer occupancy (ticks) (Tick)
system.membus.reqLayer0.utilization               0.0                       # Layer utilization (Ratio)
system.membus.respLayer1.occupancy          138624500                       # Layer occupancy (ticks) (Tick)
system.membus.respLayer1.utilization              0.0                       # Layer utilization (Ratio)
system.membus.respLayer2.occupancy           91107250                       # Layer occupancy (ticks) (Tick)
system.membus.respLayer2.utilization              0.0                       # Layer utilization (Ratio)
system.membus.snoop_filter.totRequests          87139                       # Total number of requests made to the snoop filter. (Count)
system.membus.snoop_filter.hitSingleRequests        42802                       # Number of requests hitting in the snoop filter with a single holder of the requested data. (Count)
system.membus.snoop_filter.hitMultiRequests            1                       # Number of requests hitting in the snoop filter with multiple (>1) holders of the requested data. (Count)
system.membus.snoop_filter.totSnoops                0                       # Total number of snoops made to the snoop filter. (Count)
system.membus.snoop_filter.hitSingleSnoops            0                       # Number of snoops hitting in the snoop filter with a single holder of the requested data. (Count)
system.membus.snoop_filter.hitMultiSnoops            0                       # Number of snoops hitting in the snoop filter with multiple (>1) holders of the requested data. (Count)
system.voltage_domain.voltage                       1                       # Voltage in Volts (Volt)
system.workload.inst.arm                            0                       # number of arm instructions executed (Count)
system.workload.inst.quiesce                        0                       # number of quiesce instructions executed (Count)

---------- End Simulation Statistics   ----------
