
---------- Begin Simulation Statistics ----------
simSeconds                                   0.630407                       # Number of seconds simulated (Second)
simTicks                                 630406518500                       # Number of ticks simulated (Tick)
finalTick                                630406518500                       # Number of ticks from beginning of simulation (restored from checkpoints and never reset) (Tick)
simFreq                                  1000000000000                       # The number of ticks per simulated second ((Tick/Second))
hostSeconds                                    280.63                       # Real time elapsed on the host (Second)
hostTickRate                               2246430142                       # The number of ticks simulated per host second (ticks/s) ((Tick/Second))
hostMemory                                    4420588                       # Number of bytes of host memory used (Byte)
simInsts                                    506264213                       # Number of instructions simulated (Count)
simOps                                      562362100                       # Number of ops (including micro ops) simulated (Count)
hostInstRate                                  1804053                       # Simulator instruction rate (inst/s) ((Count/Second))
hostOpRate                                    2003955                       # Simulator op (including micro ops) rate (op/s) ((Count/Second))
system.clk_domain.clock                          1000                       # Clock period in ticks (Tick)
system.cpu.numCycles                       1260813037                       # Number of cpu cycles simulated (Cycle)
system.cpu.cpi                               2.490425                       # CPI: cycles per instruction (core level) ((Cycle/Count))
system.cpu.ipc                               0.401538                       # IPC: instructions per cycle (core level) ((Count/Cycle))
system.cpu.numWorkItemsStarted                      0                       # Number of work items this cpu started (Count)
system.cpu.numWorkItemsCompleted                    0                       # Number of work items this cpu completed (Count)
system.cpu.issuedInstType_0::No_OpClass      14907391      2.65%      2.65% # Number of insts issued per FU, per thread (Count)
system.cpu.issuedInstType_0::IntAlu         256763581     45.66%     48.31% # Number of insts issued per FU, per thread (Count)
system.cpu.issuedInstType_0::IntMult            75181      0.01%     48.32% # Number of insts issued per FU, per thread (Count)
system.cpu.issuedInstType_0::IntDiv             23010      0.00%     48.33% # Number of insts issued per FU, per thread (Count)
system.cpu.issuedInstType_0::FloatAdd             102      0.00%     48.33% # Number of insts issued per FU, per thread (Count)
system.cpu.issuedInstType_0::FloatCmp             252      0.00%     48.33% # Number of insts issued per FU, per thread (Count)
system.cpu.issuedInstType_0::FloatCvt             205      0.00%     48.33% # Number of insts issued per FU, per thread (Count)
system.cpu.issuedInstType_0::FloatMult            102      0.00%     48.33% # Number of insts issued per FU, per thread (Count)
system.cpu.issuedInstType_0::FloatMultAcc            0      0.00%     48.33% # Number of insts issued per FU, per thread (Count)
system.cpu.issuedInstType_0::FloatDiv             204      0.00%     48.33% # Number of insts issued per FU, per thread (Count)
system.cpu.issuedInstType_0::FloatMisc          15000      0.00%     48.33% # Number of insts issued per FU, per thread (Count)
system.cpu.issuedInstType_0::FloatSqrt              0      0.00%     48.33% # Number of insts issued per FU, per thread (Count)
system.cpu.issuedInstType_0::SimdAdd          2909613      0.52%     48.85% # Number of insts issued per FU, per thread (Count)
system.cpu.issuedInstType_0::SimdAddAcc             0      0.00%     48.85% # Number of insts issued per FU, per thread (Count)
system.cpu.issuedInstType_0::SimdAlu         27326773      4.86%     53.71% # Number of insts issued per FU, per thread (Count)
system.cpu.issuedInstType_0::SimdCmp            43815      0.01%     53.71% # Number of insts issued per FU, per thread (Count)
system.cpu.issuedInstType_0::SimdCvt               51      0.00%     53.71% # Number of insts issued per FU, per thread (Count)
system.cpu.issuedInstType_0::SimdMisc          553638      0.10%     53.81% # Number of insts issued per FU, per thread (Count)
system.cpu.issuedInstType_0::SimdMult               0      0.00%     53.81% # Number of insts issued per FU, per thread (Count)
system.cpu.issuedInstType_0::SimdMultAcc     42972160      7.64%     61.45% # Number of insts issued per FU, per thread (Count)
system.cpu.issuedInstType_0::SimdMatMultAcc            0      0.00%     61.45% # Number of insts issued per FU, per thread (Count)
system.cpu.issuedInstType_0::SimdShift        1732676      0.31%     61.76% # Number of insts issued per FU, per thread (Count)
system.cpu.issuedInstType_0::SimdShiftAcc            0      0.00%     61.76% # Number of insts issued per FU, per thread (Count)
system.cpu.issuedInstType_0::SimdDiv                0      0.00%     61.76% # Number of insts issued per FU, per thread (Count)
system.cpu.issuedInstType_0::SimdSqrt               0      0.00%     61.76% # Number of insts issued per FU, per thread (Count)
system.cpu.issuedInstType_0::SimdFloatAdd            0      0.00%     61.76% # Number of insts issued per FU, per thread (Count)
system.cpu.issuedInstType_0::SimdFloatAlu            0      0.00%     61.76% # Number of insts issued per FU, per thread (Count)
system.cpu.issuedInstType_0::SimdFloatCmp            0      0.00%     61.76% # Number of insts issued per FU, per thread (Count)
system.cpu.issuedInstType_0::SimdFloatCvt            0      0.00%     61.76% # Number of insts issued per FU, per thread (Count)
system.cpu.issuedInstType_0::SimdFloatDiv            0      0.00%     61.76% # Number of insts issued per FU, per thread (Count)
system.cpu.issuedInstType_0::SimdFloatMisc            0      0.00%     61.76% # Number of insts issued per FU, per thread (Count)
system.cpu.issuedInstType_0::SimdFloatMult            0      0.00%     61.76% # Number of insts issued per FU, per thread (Count)
system.cpu.issuedInstType_0::SimdFloatMultAcc            0      0.00%     61.76% # Number of insts issued per FU, per thread (Count)
system.cpu.issuedInstType_0::SimdFloatMatMultAcc            0      0.00%     61.76% # Number of insts issued per FU, per thread (Count)
system.cpu.issuedInstType_0::SimdFloatSqrt            0      0.00%     61.76% # Number of insts issued per FU, per thread (Count)
system.cpu.issuedInstType_0::SimdReduceAdd            0      0.00%     61.76% # Number of insts issued per FU, per thread (Count)
system.cpu.issuedInstType_0::SimdReduceAlu            0      0.00%     61.76% # Number of insts issued per FU, per thread (Count)
system.cpu.issuedInstType_0::SimdReduceCmp            0      0.00%     61.76% # Number of insts issued per FU, per thread (Count)
system.cpu.issuedInstType_0::SimdFloatReduceAdd            0      0.00%     61.76% # Number of insts issued per FU, per thread (Count)
system.cpu.issuedInstType_0::SimdFloatReduceCmp            0      0.00%     61.76% # Number of insts issued per FU, per thread (Count)
system.cpu.issuedInstType_0::SimdAes         52743917      9.38%     71.14% # Number of insts issued per FU, per thread (Count)
system.cpu.issuedInstType_0::SimdAesMix      47467262      8.44%     79.58% # Number of insts issued per FU, per thread (Count)
system.cpu.issuedInstType_0::SimdSha1Hash            0      0.00%     79.58% # Number of insts issued per FU, per thread (Count)
system.cpu.issuedInstType_0::SimdSha1Hash2            0      0.00%     79.58% # Number of insts issued per FU, per thread (Count)
system.cpu.issuedInstType_0::SimdSha256Hash           16      0.00%     79.58% # Number of insts issued per FU, per thread (Count)
system.cpu.issuedInstType_0::SimdSha256Hash2           16      0.00%     79.58% # Number of insts issued per FU, per thread (Count)
system.cpu.issuedInstType_0::SimdShaSigma2           12      0.00%     79.58% # Number of insts issued per FU, per thread (Count)
system.cpu.issuedInstType_0::SimdShaSigma3           12      0.00%     79.58% # Number of insts issued per FU, per thread (Count)
system.cpu.issuedInstType_0::SimdSha3               0      0.00%     79.58% # Number of insts issued per FU, per thread (Count)
system.cpu.issuedInstType_0::SimdSm4e               0      0.00%     79.58% # Number of insts issued per FU, per thread (Count)
system.cpu.issuedInstType_0::SimdCrc                0      0.00%     79.58% # Number of insts issued per FU, per thread (Count)
system.cpu.issuedInstType_0::SimdPredAlu            0      0.00%     79.58% # Number of insts issued per FU, per thread (Count)
system.cpu.issuedInstType_0::SimdDotProd            0      0.00%     79.58% # Number of insts issued per FU, per thread (Count)
system.cpu.issuedInstType_0::Matrix                 0      0.00%     79.58% # Number of insts issued per FU, per thread (Count)
system.cpu.issuedInstType_0::MatrixMov              0      0.00%     79.58% # Number of insts issued per FU, per thread (Count)
system.cpu.issuedInstType_0::MatrixOP               0      0.00%     79.58% # Number of insts issued per FU, per thread (Count)
system.cpu.issuedInstType_0::MemRead         81992673     14.58%     94.16% # Number of insts issued per FU, per thread (Count)
system.cpu.issuedInstType_0::MemWrite        32791256      5.83%     99.99% # Number of insts issued per FU, per thread (Count)
system.cpu.issuedInstType_0::FloatMemRead            0      0.00%     99.99% # Number of insts issued per FU, per thread (Count)
system.cpu.issuedInstType_0::FloatMemWrite            0      0.00%     99.99% # Number of insts issued per FU, per thread (Count)
system.cpu.issuedInstType_0::InstPrefetch            0      0.00%     99.99% # Number of insts issued per FU, per thread (Count)
system.cpu.issuedInstType_0::SimdUnitStrideLoad            0      0.00%     99.99% # Number of insts issued per FU, per thread (Count)
system.cpu.issuedInstType_0::SimdUnitStrideStore            0      0.00%     99.99% # Number of insts issued per FU, per thread (Count)
system.cpu.issuedInstType_0::SimdUnitStrideMaskLoad            0      0.00%     99.99% # Number of insts issued per FU, per thread (Count)
system.cpu.issuedInstType_0::SimdUnitStrideMaskStore            0      0.00%     99.99% # Number of insts issued per FU, per thread (Count)
system.cpu.issuedInstType_0::SimdStridedLoad            0      0.00%     99.99% # Number of insts issued per FU, per thread (Count)
system.cpu.issuedInstType_0::SimdStridedStore            0      0.00%     99.99% # Number of insts issued per FU, per thread (Count)
system.cpu.issuedInstType_0::SimdIndexedLoad            0      0.00%     99.99% # Number of insts issued per FU, per thread (Count)
system.cpu.issuedInstType_0::SimdIndexedStore            0      0.00%     99.99% # Number of insts issued per FU, per thread (Count)
system.cpu.issuedInstType_0::SimdWholeRegisterLoad            0      0.00%     99.99% # Number of insts issued per FU, per thread (Count)
system.cpu.issuedInstType_0::SimdWholeRegisterStore            0      0.00%     99.99% # Number of insts issued per FU, per thread (Count)
system.cpu.issuedInstType_0::SimdUnitStrideFaultOnlyFirstLoad            0      0.00%     99.99% # Number of insts issued per FU, per thread (Count)
system.cpu.issuedInstType_0::SimdUnitStrideSegmentedLoad            0      0.00%     99.99% # Number of insts issued per FU, per thread (Count)
system.cpu.issuedInstType_0::SimdUnitStrideSegmentedStore            0      0.00%     99.99% # Number of insts issued per FU, per thread (Count)
system.cpu.issuedInstType_0::SimdUnitStrideSegmentedFaultOnlyFirstLoad            0      0.00%     99.99% # Number of insts issued per FU, per thread (Count)
system.cpu.issuedInstType_0::SimdStrideSegmentedLoad            0      0.00%     99.99% # Number of insts issued per FU, per thread (Count)
system.cpu.issuedInstType_0::SimdStrideSegmentedStore            0      0.00%     99.99% # Number of insts issued per FU, per thread (Count)
system.cpu.issuedInstType_0::SimdExt                0      0.00%     99.99% # Number of insts issued per FU, per thread (Count)
system.cpu.issuedInstType_0::SimdFloatExt            0      0.00%     99.99% # Number of insts issued per FU, per thread (Count)
system.cpu.issuedInstType_0::SimdConfig             0      0.00%     99.99% # Number of insts issued per FU, per thread (Count)
system.cpu.issuedInstType_0::SimdBf16Add            0      0.00%     99.99% # Number of insts issued per FU, per thread (Count)
system.cpu.issuedInstType_0::SimdBf16Cmp            0      0.00%     99.99% # Number of insts issued per FU, per thread (Count)
system.cpu.issuedInstType_0::SimdBf16Cvt            0      0.00%     99.99% # Number of insts issued per FU, per thread (Count)
system.cpu.issuedInstType_0::SimdBf16DotProd            0      0.00%     99.99% # Number of insts issued per FU, per thread (Count)
system.cpu.issuedInstType_0::SimdBf16MatMultAcc            0      0.00%     99.99% # Number of insts issued per FU, per thread (Count)
system.cpu.issuedInstType_0::SimdBf16Mult            0      0.00%     99.99% # Number of insts issued per FU, per thread (Count)
system.cpu.issuedInstType_0::SimdBf16MultAcc            0      0.00%     99.99% # Number of insts issued per FU, per thread (Count)
system.cpu.issuedInstType_0::Bf16Cvt                0      0.00%     99.99% # Number of insts issued per FU, per thread (Count)
system.cpu.issuedInstType_0::System             43182      0.01%    100.00% # Number of insts issued per FU, per thread (Count)
system.cpu.issuedInstType_0::total          562362100                       # Number of insts issued per FU, per thread (Count)
system.cpu.commitStats0.numInsts            506264213                       # Number of instructions committed (thread level) (Count)
system.cpu.commitStats0.numOps              562362100                       # Number of ops (including micro ops) committed (thread level) (Count)
system.cpu.commitStats0.numInstsNotNOP      506160913                       # Number of instructions committed excluding NOPs or prefetches (Count)
system.cpu.commitStats0.numOpsNotNOP        562258800                       # Number of Ops (including micro ops) Simulated (Count)
system.cpu.commitStats0.numUserInsts        506264213                       # Numbrer of instructions committed in user mode (Count)
system.cpu.commitStats0.numUserOps          562362100                       # Number of ops committed in user mode (Count)
system.cpu.commitStats0.ratioUserInsts              1                       # Ratio of instructions committed in user mode (Ratio)
system.cpu.commitStats0.ratioUserOps                1                       # Ratio of ops committed in user mode (Ratio)
system.cpu.commitStats0.cpi                  2.490425                       # CPI: cycles per instruction (thread level) ((Cycle/Count))
system.cpu.commitStats0.ipc                  0.401538                       # IPC: instructions per cycle (thread level) ((Count/Cycle))
system.cpu.commitStats0.numMemRefs          114783929                       # Number of memory references committed (Count)
system.cpu.commitStats0.numFpInsts                  0                       # Number of float instructions (Count)
system.cpu.commitStats0.numIntInsts         339644192                       # Number of integer instructions (Count)
system.cpu.commitStats0.numLoadInsts         81992673                       # Number of load instructions (Count)
system.cpu.commitStats0.numStoreInsts        32791256                       # Number of store instructions (Count)
system.cpu.commitStats0.numVecInsts         277949198                       # Number of vector instructions (Count)
system.cpu.commitStats0.committedInstType::No_OpClass     14907391      2.65%      2.65% # Class of committed instruction. (Count)
system.cpu.commitStats0.committedInstType::IntAlu    256763581     45.66%     48.31% # Class of committed instruction. (Count)
system.cpu.commitStats0.committedInstType::IntMult        75181      0.01%     48.32% # Class of committed instruction. (Count)
system.cpu.commitStats0.committedInstType::IntDiv        23010      0.00%     48.33% # Class of committed instruction. (Count)
system.cpu.commitStats0.committedInstType::FloatAdd          102      0.00%     48.33% # Class of committed instruction. (Count)
system.cpu.commitStats0.committedInstType::FloatCmp          252      0.00%     48.33% # Class of committed instruction. (Count)
system.cpu.commitStats0.committedInstType::FloatCvt          205      0.00%     48.33% # Class of committed instruction. (Count)
system.cpu.commitStats0.committedInstType::FloatMult          102      0.00%     48.33% # Class of committed instruction. (Count)
system.cpu.commitStats0.committedInstType::FloatMultAcc            0      0.00%     48.33% # Class of committed instruction. (Count)
system.cpu.commitStats0.committedInstType::FloatDiv          204      0.00%     48.33% # Class of committed instruction. (Count)
system.cpu.commitStats0.committedInstType::FloatMisc        15000      0.00%     48.33% # Class of committed instruction. (Count)
system.cpu.commitStats0.committedInstType::FloatSqrt            0      0.00%     48.33% # Class of committed instruction. (Count)
system.cpu.commitStats0.committedInstType::SimdAdd      2909613      0.52%     48.85% # Class of committed instruction. (Count)
system.cpu.commitStats0.committedInstType::SimdAddAcc            0      0.00%     48.85% # Class of committed instruction. (Count)
system.cpu.commitStats0.committedInstType::SimdAlu     27326773      4.86%     53.71% # Class of committed instruction. (Count)
system.cpu.commitStats0.committedInstType::SimdCmp        43815      0.01%     53.71% # Class of committed instruction. (Count)
system.cpu.commitStats0.committedInstType::SimdCvt           51      0.00%     53.71% # Class of committed instruction. (Count)
system.cpu.commitStats0.committedInstType::SimdMisc       553638      0.10%     53.81% # Class of committed instruction. (Count)
system.cpu.commitStats0.committedInstType::SimdMult            0      0.00%     53.81% # Class of committed instruction. (Count)
system.cpu.commitStats0.committedInstType::SimdMultAcc     42972160      7.64%     61.45% # Class of committed instruction. (Count)
system.cpu.commitStats0.committedInstType::SimdMatMultAcc            0      0.00%     61.45% # Class of committed instruction. (Count)
system.cpu.commitStats0.committedInstType::SimdShift      1732676      0.31%     61.76% # Class of committed instruction. (Count)
system.cpu.commitStats0.committedInstType::SimdShiftAcc            0      0.00%     61.76% # Class of committed instruction. (Count)
system.cpu.commitStats0.committedInstType::SimdDiv            0      0.00%     61.76% # Class of committed instruction. (Count)
system.cpu.commitStats0.committedInstType::SimdSqrt            0      0.00%     61.76% # Class of committed instruction. (Count)
system.cpu.commitStats0.committedInstType::SimdFloatAdd            0      0.00%     61.76% # Class of committed instruction. (Count)
system.cpu.commitStats0.committedInstType::SimdFloatAlu            0      0.00%     61.76% # Class of committed instruction. (Count)
system.cpu.commitStats0.committedInstType::SimdFloatCmp            0      0.00%     61.76% # Class of committed instruction. (Count)
system.cpu.commitStats0.committedInstType::SimdFloatCvt            0      0.00%     61.76% # Class of committed instruction. (Count)
system.cpu.commitStats0.committedInstType::SimdFloatDiv            0      0.00%     61.76% # Class of committed instruction. (Count)
system.cpu.commitStats0.committedInstType::SimdFloatMisc            0      0.00%     61.76% # Class of committed instruction. (Count)
system.cpu.commitStats0.committedInstType::SimdFloatMult            0      0.00%     61.76% # Class of committed instruction. (Count)
system.cpu.commitStats0.committedInstType::SimdFloatMultAcc            0      0.00%     61.76% # Class of committed instruction. (Count)
system.cpu.commitStats0.committedInstType::SimdFloatMatMultAcc            0      0.00%     61.76% # Class of committed instruction. (Count)
system.cpu.commitStats0.committedInstType::SimdFloatSqrt            0      0.00%     61.76% # Class of committed instruction. (Count)
system.cpu.commitStats0.committedInstType::SimdReduceAdd            0      0.00%     61.76% # Class of committed instruction. (Count)
system.cpu.commitStats0.committedInstType::SimdReduceAlu            0      0.00%     61.76% # Class of committed instruction. (Count)
system.cpu.commitStats0.committedInstType::SimdReduceCmp            0      0.00%     61.76% # Class of committed instruction. (Count)
system.cpu.commitStats0.committedInstType::SimdFloatReduceAdd            0      0.00%     61.76% # Class of committed instruction. (Count)
system.cpu.commitStats0.committedInstType::SimdFloatReduceCmp            0      0.00%     61.76% # Class of committed instruction. (Count)
system.cpu.commitStats0.committedInstType::SimdAes     52743917      9.38%     71.14% # Class of committed instruction. (Count)
system.cpu.commitStats0.committedInstType::SimdAesMix     47467262      8.44%     79.58% # Class of committed instruction. (Count)
system.cpu.commitStats0.committedInstType::SimdSha1Hash            0      0.00%     79.58% # Class of committed instruction. (Count)
system.cpu.commitStats0.committedInstType::SimdSha1Hash2            0      0.00%     79.58% # Class of committed instruction. (Count)
system.cpu.commitStats0.committedInstType::SimdSha256Hash           16      0.00%     79.58% # Class of committed instruction. (Count)
system.cpu.commitStats0.committedInstType::SimdSha256Hash2           16      0.00%     79.58% # Class of committed instruction. (Count)
system.cpu.commitStats0.committedInstType::SimdShaSigma2           12      0.00%     79.58% # Class of committed instruction. (Count)
system.cpu.commitStats0.committedInstType::SimdShaSigma3           12      0.00%     79.58% # Class of committed instruction. (Count)
system.cpu.commitStats0.committedInstType::SimdSha3            0      0.00%     79.58% # Class of committed instruction. (Count)
system.cpu.commitStats0.committedInstType::SimdSm4e            0      0.00%     79.58% # Class of committed instruction. (Count)
system.cpu.commitStats0.committedInstType::SimdCrc            0      0.00%     79.58% # Class of committed instruction. (Count)
system.cpu.commitStats0.committedInstType::SimdPredAlu            0      0.00%     79.58% # Class of committed instruction. (Count)
system.cpu.commitStats0.committedInstType::SimdDotProd            0      0.00%     79.58% # Class of committed instruction. (Count)
system.cpu.commitStats0.committedInstType::Matrix            0      0.00%     79.58% # Class of committed instruction. (Count)
system.cpu.commitStats0.committedInstType::MatrixMov            0      0.00%     79.58% # Class of committed instruction. (Count)
system.cpu.commitStats0.committedInstType::MatrixOP            0      0.00%     79.58% # Class of committed instruction. (Count)
system.cpu.commitStats0.committedInstType::MemRead     81992673     14.58%     94.16% # Class of committed instruction. (Count)
system.cpu.commitStats0.committedInstType::MemWrite     32791256      5.83%     99.99% # Class of committed instruction. (Count)
system.cpu.commitStats0.committedInstType::FloatMemRead            0      0.00%     99.99% # Class of committed instruction. (Count)
system.cpu.commitStats0.committedInstType::FloatMemWrite            0      0.00%     99.99% # Class of committed instruction. (Count)
system.cpu.commitStats0.committedInstType::InstPrefetch            0      0.00%     99.99% # Class of committed instruction. (Count)
system.cpu.commitStats0.committedInstType::SimdUnitStrideLoad            0      0.00%     99.99% # Class of committed instruction. (Count)
system.cpu.commitStats0.committedInstType::SimdUnitStrideStore            0      0.00%     99.99% # Class of committed instruction. (Count)
system.cpu.commitStats0.committedInstType::SimdUnitStrideMaskLoad            0      0.00%     99.99% # Class of committed instruction. (Count)
system.cpu.commitStats0.committedInstType::SimdUnitStrideMaskStore            0      0.00%     99.99% # Class of committed instruction. (Count)
system.cpu.commitStats0.committedInstType::SimdStridedLoad            0      0.00%     99.99% # Class of committed instruction. (Count)
system.cpu.commitStats0.committedInstType::SimdStridedStore            0      0.00%     99.99% # Class of committed instruction. (Count)
system.cpu.commitStats0.committedInstType::SimdIndexedLoad            0      0.00%     99.99% # Class of committed instruction. (Count)
system.cpu.commitStats0.committedInstType::SimdIndexedStore            0      0.00%     99.99% # Class of committed instruction. (Count)
system.cpu.commitStats0.committedInstType::SimdWholeRegisterLoad            0      0.00%     99.99% # Class of committed instruction. (Count)
system.cpu.commitStats0.committedInstType::SimdWholeRegisterStore            0      0.00%     99.99% # Class of committed instruction. (Count)
system.cpu.commitStats0.committedInstType::SimdUnitStrideFaultOnlyFirstLoad            0      0.00%     99.99% # Class of committed instruction. (Count)
system.cpu.commitStats0.committedInstType::SimdUnitStrideSegmentedLoad            0      0.00%     99.99% # Class of committed instruction. (Count)
system.cpu.commitStats0.committedInstType::SimdUnitStrideSegmentedStore            0      0.00%     99.99% # Class of committed instruction. (Count)
system.cpu.commitStats0.committedInstType::SimdUnitStrideSegmentedFaultOnlyFirstLoad            0      0.00%     99.99% # Class of committed instruction. (Count)
system.cpu.commitStats0.committedInstType::SimdStrideSegmentedLoad            0      0.00%     99.99% # Class of committed instruction. (Count)
system.cpu.commitStats0.committedInstType::SimdStrideSegmentedStore            0      0.00%     99.99% # Class of committed instruction. (Count)
system.cpu.commitStats0.committedInstType::SimdExt            0      0.00%     99.99% # Class of committed instruction. (Count)
system.cpu.commitStats0.committedInstType::SimdFloatExt            0      0.00%     99.99% # Class of committed instruction. (Count)
system.cpu.commitStats0.committedInstType::SimdConfig            0      0.00%     99.99% # Class of committed instruction. (Count)
system.cpu.commitStats0.committedInstType::SimdBf16Add            0      0.00%     99.99% # Class of committed instruction. (Count)
system.cpu.commitStats0.committedInstType::SimdBf16Cmp            0      0.00%     99.99% # Class of committed instruction. (Count)
system.cpu.commitStats0.committedInstType::SimdBf16Cvt            0      0.00%     99.99% # Class of committed instruction. (Count)
system.cpu.commitStats0.committedInstType::SimdBf16DotProd            0      0.00%     99.99% # Class of committed instruction. (Count)
system.cpu.commitStats0.committedInstType::SimdBf16MatMultAcc            0      0.00%     99.99% # Class of committed instruction. (Count)
system.cpu.commitStats0.committedInstType::SimdBf16Mult            0      0.00%     99.99% # Class of committed instruction. (Count)
system.cpu.commitStats0.committedInstType::SimdBf16MultAcc            0      0.00%     99.99% # Class of committed instruction. (Count)
system.cpu.commitStats0.committedInstType::Bf16Cvt            0      0.00%     99.99% # Class of committed instruction. (Count)
system.cpu.commitStats0.committedInstType::System        43182      0.01%    100.00% # Class of committed instruction. (Count)
system.cpu.commitStats0.committedInstType::total    562362100                       # Class of committed instruction. (Count)
system.cpu.commitStats0.committedControl::IsControl     35473542                       # Class of control type instructions committed (Count)
system.cpu.commitStats0.committedControl::IsDirectControl     34740373                       # Class of control type instructions committed (Count)
system.cpu.commitStats0.committedControl::IsIndirectControl       733169                       # Class of control type instructions committed (Count)
system.cpu.commitStats0.committedControl::IsCondControl     34042621                       # Class of control type instructions committed (Count)
system.cpu.commitStats0.committedControl::IsUncondControl      1430921                       # Class of control type instructions committed (Count)
system.cpu.commitStats0.committedControl::IsCall       533560                       # Class of control type instructions committed (Count)
system.cpu.commitStats0.committedControl::IsReturn       533555                       # Class of control type instructions committed (Count)
system.cpu.commitStats0.functionCalls          533560                       # Number of function calls committed (Count)
system.cpu.commitStats0.numCallsReturns       1067115                       # Number of function calls and returns committed (Count)
system.cpu.dcache.demandHits::cpu.data      115695372                       # number of demand (read+write) hits (Count)
system.cpu.dcache.demandHits::total         115695372                       # number of demand (read+write) hits (Count)
system.cpu.dcache.overallHits::cpu.data     115695372                       # number of overall hits (Count)
system.cpu.dcache.overallHits::total        115695372                       # number of overall hits (Count)
system.cpu.dcache.demandMisses::cpu.data       503517                       # number of demand (read+write) misses (Count)
system.cpu.dcache.demandMisses::total          503517                       # number of demand (read+write) misses (Count)
system.cpu.dcache.overallMisses::cpu.data       503517                       # number of overall misses (Count)
system.cpu.dcache.overallMisses::total         503517                       # number of overall misses (Count)
system.cpu.dcache.demandMissLatency::cpu.data   7646850000                       # number of demand (read+write) miss ticks (Tick)
system.cpu.dcache.demandMissLatency::total   7646850000                       # number of demand (read+write) miss ticks (Tick)
system.cpu.dcache.overallMissLatency::cpu.data   7646850000                       # number of overall miss ticks (Tick)
system.cpu.dcache.overallMissLatency::total   7646850000                       # number of overall miss ticks (Tick)
system.cpu.dcache.demandAccesses::cpu.data    116198889                       # number of demand (read+write) accesses (Count)
system.cpu.dcache.demandAccesses::total     116198889                       # number of demand (read+write) accesses (Count)
system.cpu.dcache.overallAccesses::cpu.data    116198889                       # number of overall (read+write) accesses (Count)
system.cpu.dcache.overallAccesses::total    116198889                       # number of overall (read+write) accesses (Count)
system.cpu.dcache.demandMissRate::cpu.data     0.004333                       # miss rate for demand accesses (Ratio)
system.cpu.dcache.demandMissRate::total      0.004333                       # miss rate for demand accesses (Ratio)
system.cpu.dcache.overallMissRate::cpu.data     0.004333                       # miss rate for overall accesses (Ratio)
system.cpu.dcache.overallMissRate::total     0.004333                       # miss rate for overall accesses (Ratio)
system.cpu.dcache.demandAvgMissLatency::cpu.data 15186.875518                       # average overall miss latency in ticks ((Tick/Count))
system.cpu.dcache.demandAvgMissLatency::total 15186.875518                       # average overall miss latency in ticks ((Tick/Count))
system.cpu.dcache.overallAvgMissLatency::cpu.data 15186.875518                       # average overall miss latency ((Tick/Count))
system.cpu.dcache.overallAvgMissLatency::total 15186.875518                       # average overall miss latency ((Tick/Count))
system.cpu.dcache.blockedCycles::no_mshrs            0                       # number of cycles access was blocked (Cycle)
system.cpu.dcache.blockedCycles::no_wbuffers            0                       # number of cycles access was blocked (Cycle)
system.cpu.dcache.blockedCycles::no_targets            0                       # number of cycles access was blocked (Cycle)
system.cpu.dcache.blockedCauses::no_mshrs            0                       # number of times access was blocked (Count)
system.cpu.dcache.blockedCauses::no_wbuffers            0                       # number of times access was blocked (Count)
system.cpu.dcache.blockedCauses::no_targets            0                       # number of times access was blocked (Count)
system.cpu.dcache.avgBlocked::no_mshrs            nan                       # average number of cycles each access was blocked ((Cycle/Count))
system.cpu.dcache.avgBlocked::no_wbuffers          nan                       # average number of cycles each access was blocked ((Cycle/Count))
system.cpu.dcache.avgBlocked::no_targets          nan                       # average number of cycles each access was blocked ((Cycle/Count))
system.cpu.dcache.writebacks::writebacks       466218                       # number of writebacks (Count)
system.cpu.dcache.writebacks::total            466218                       # number of writebacks (Count)
system.cpu.dcache.demandMshrMisses::cpu.data       503517                       # number of demand (read+write) MSHR misses (Count)
system.cpu.dcache.demandMshrMisses::total       503517                       # number of demand (read+write) MSHR misses (Count)
system.cpu.dcache.overallMshrMisses::cpu.data       503517                       # number of overall MSHR misses (Count)
system.cpu.dcache.overallMshrMisses::total       503517                       # number of overall MSHR misses (Count)
system.cpu.dcache.demandMshrMissLatency::cpu.data   7143333000                       # number of demand (read+write) MSHR miss ticks (Tick)
system.cpu.dcache.demandMshrMissLatency::total   7143333000                       # number of demand (read+write) MSHR miss ticks (Tick)
system.cpu.dcache.overallMshrMissLatency::cpu.data   7143333000                       # number of overall MSHR miss ticks (Tick)
system.cpu.dcache.overallMshrMissLatency::total   7143333000                       # number of overall MSHR miss ticks (Tick)
system.cpu.dcache.demandMshrMissRate::cpu.data     0.004333                       # mshr miss ratio for demand accesses (Ratio)
system.cpu.dcache.demandMshrMissRate::total     0.004333                       # mshr miss ratio for demand accesses (Ratio)
system.cpu.dcache.overallMshrMissRate::cpu.data     0.004333                       # mshr miss ratio for overall accesses (Ratio)
system.cpu.dcache.overallMshrMissRate::total     0.004333                       # mshr miss ratio for overall accesses (Ratio)
system.cpu.dcache.demandAvgMshrMissLatency::cpu.data 14186.875518                       # average overall mshr miss latency ((Tick/Count))
system.cpu.dcache.demandAvgMshrMissLatency::total 14186.875518                       # average overall mshr miss latency ((Tick/Count))
system.cpu.dcache.overallAvgMshrMissLatency::cpu.data 14186.875518                       # average overall mshr miss latency ((Tick/Count))
system.cpu.dcache.overallAvgMshrMissLatency::total 14186.875518                       # average overall mshr miss latency ((Tick/Count))
system.cpu.dcache.replacements                 502784                       # number of replacements (Count)
system.cpu.dcache.LoadLockedReq.hits::cpu.data            3                       # number of LoadLockedReq hits (Count)
system.cpu.dcache.LoadLockedReq.hits::total            3                       # number of LoadLockedReq hits (Count)
system.cpu.dcache.LoadLockedReq.misses::cpu.data            1                       # number of LoadLockedReq misses (Count)
system.cpu.dcache.LoadLockedReq.misses::total            1                       # number of LoadLockedReq misses (Count)
system.cpu.dcache.LoadLockedReq.missLatency::cpu.data       100000                       # number of LoadLockedReq miss ticks (Tick)
system.cpu.dcache.LoadLockedReq.missLatency::total       100000                       # number of LoadLockedReq miss ticks (Tick)
system.cpu.dcache.LoadLockedReq.accesses::cpu.data            4                       # number of LoadLockedReq accesses(hits+misses) (Count)
system.cpu.dcache.LoadLockedReq.accesses::total            4                       # number of LoadLockedReq accesses(hits+misses) (Count)
system.cpu.dcache.LoadLockedReq.missRate::cpu.data     0.250000                       # miss rate for LoadLockedReq accesses (Ratio)
system.cpu.dcache.LoadLockedReq.missRate::total     0.250000                       # miss rate for LoadLockedReq accesses (Ratio)
system.cpu.dcache.LoadLockedReq.avgMissLatency::cpu.data       100000                       # average LoadLockedReq miss latency ((Tick/Count))
system.cpu.dcache.LoadLockedReq.avgMissLatency::total       100000                       # average LoadLockedReq miss latency ((Tick/Count))
system.cpu.dcache.LoadLockedReq.mshrMisses::cpu.data            1                       # number of LoadLockedReq MSHR misses (Count)
system.cpu.dcache.LoadLockedReq.mshrMisses::total            1                       # number of LoadLockedReq MSHR misses (Count)
system.cpu.dcache.LoadLockedReq.mshrMissLatency::cpu.data        99000                       # number of LoadLockedReq MSHR miss ticks (Tick)
system.cpu.dcache.LoadLockedReq.mshrMissLatency::total        99000                       # number of LoadLockedReq MSHR miss ticks (Tick)
system.cpu.dcache.LoadLockedReq.mshrMissRate::cpu.data     0.250000                       # mshr miss rate for LoadLockedReq accesses (Ratio)
system.cpu.dcache.LoadLockedReq.mshrMissRate::total     0.250000                       # mshr miss rate for LoadLockedReq accesses (Ratio)
system.cpu.dcache.LoadLockedReq.avgMshrMissLatency::cpu.data        99000                       # average LoadLockedReq mshr miss latency ((Tick/Count))
system.cpu.dcache.LoadLockedReq.avgMshrMissLatency::total        99000                       # average LoadLockedReq mshr miss latency ((Tick/Count))
system.cpu.dcache.ReadReq.hits::cpu.data     83129016                       # number of ReadReq hits (Count)
system.cpu.dcache.ReadReq.hits::total        83129016                       # number of ReadReq hits (Count)
system.cpu.dcache.ReadReq.misses::cpu.data       290817                       # number of ReadReq misses (Count)
system.cpu.dcache.ReadReq.misses::total        290817                       # number of ReadReq misses (Count)
system.cpu.dcache.ReadReq.missLatency::cpu.data   4522544500                       # number of ReadReq miss ticks (Tick)
system.cpu.dcache.ReadReq.missLatency::total   4522544500                       # number of ReadReq miss ticks (Tick)
system.cpu.dcache.ReadReq.accesses::cpu.data     83419833                       # number of ReadReq accesses(hits+misses) (Count)
system.cpu.dcache.ReadReq.accesses::total     83419833                       # number of ReadReq accesses(hits+misses) (Count)
system.cpu.dcache.ReadReq.missRate::cpu.data     0.003486                       # miss rate for ReadReq accesses (Ratio)
system.cpu.dcache.ReadReq.missRate::total     0.003486                       # miss rate for ReadReq accesses (Ratio)
system.cpu.dcache.ReadReq.avgMissLatency::cpu.data 15551.169636                       # average ReadReq miss latency ((Tick/Count))
system.cpu.dcache.ReadReq.avgMissLatency::total 15551.169636                       # average ReadReq miss latency ((Tick/Count))
system.cpu.dcache.ReadReq.mshrMisses::cpu.data       290817                       # number of ReadReq MSHR misses (Count)
system.cpu.dcache.ReadReq.mshrMisses::total       290817                       # number of ReadReq MSHR misses (Count)
system.cpu.dcache.ReadReq.mshrMissLatency::cpu.data   4231727500                       # number of ReadReq MSHR miss ticks (Tick)
system.cpu.dcache.ReadReq.mshrMissLatency::total   4231727500                       # number of ReadReq MSHR miss ticks (Tick)
system.cpu.dcache.ReadReq.mshrMissRate::cpu.data     0.003486                       # mshr miss rate for ReadReq accesses (Ratio)
system.cpu.dcache.ReadReq.mshrMissRate::total     0.003486                       # mshr miss rate for ReadReq accesses (Ratio)
system.cpu.dcache.ReadReq.avgMshrMissLatency::cpu.data 14551.169636                       # average ReadReq mshr miss latency ((Tick/Count))
system.cpu.dcache.ReadReq.avgMshrMissLatency::total 14551.169636                       # average ReadReq mshr miss latency ((Tick/Count))
system.cpu.dcache.StoreCondReq.hits::cpu.data            4                       # number of StoreCondReq hits (Count)
system.cpu.dcache.StoreCondReq.hits::total            4                       # number of StoreCondReq hits (Count)
system.cpu.dcache.StoreCondReq.accesses::cpu.data            4                       # number of StoreCondReq accesses(hits+misses) (Count)
system.cpu.dcache.StoreCondReq.accesses::total            4                       # number of StoreCondReq accesses(hits+misses) (Count)
system.cpu.dcache.SwapReq.hits::cpu.data        16121                       # number of SwapReq hits (Count)
system.cpu.dcache.SwapReq.hits::total           16121                       # number of SwapReq hits (Count)
system.cpu.dcache.SwapReq.misses::cpu.data          290                       # number of SwapReq misses (Count)
system.cpu.dcache.SwapReq.misses::total           290                       # number of SwapReq misses (Count)
system.cpu.dcache.SwapReq.missLatency::cpu.data      3770500                       # number of SwapReq miss ticks (Tick)
system.cpu.dcache.SwapReq.missLatency::total      3770500                       # number of SwapReq miss ticks (Tick)
system.cpu.dcache.SwapReq.accesses::cpu.data        16411                       # number of SwapReq accesses(hits+misses) (Count)
system.cpu.dcache.SwapReq.accesses::total        16411                       # number of SwapReq accesses(hits+misses) (Count)
system.cpu.dcache.SwapReq.missRate::cpu.data     0.017671                       # miss rate for SwapReq accesses (Ratio)
system.cpu.dcache.SwapReq.missRate::total     0.017671                       # miss rate for SwapReq accesses (Ratio)
system.cpu.dcache.SwapReq.avgMissLatency::cpu.data 13001.724138                       # average SwapReq miss latency ((Tick/Count))
system.cpu.dcache.SwapReq.avgMissLatency::total 13001.724138                       # average SwapReq miss latency ((Tick/Count))
system.cpu.dcache.SwapReq.mshrMisses::cpu.data          290                       # number of SwapReq MSHR misses (Count)
system.cpu.dcache.SwapReq.mshrMisses::total          290                       # number of SwapReq MSHR misses (Count)
system.cpu.dcache.SwapReq.mshrMissLatency::cpu.data      3480500                       # number of SwapReq MSHR miss ticks (Tick)
system.cpu.dcache.SwapReq.mshrMissLatency::total      3480500                       # number of SwapReq MSHR miss ticks (Tick)
system.cpu.dcache.SwapReq.mshrMissRate::cpu.data     0.017671                       # mshr miss rate for SwapReq accesses (Ratio)
system.cpu.dcache.SwapReq.mshrMissRate::total     0.017671                       # mshr miss rate for SwapReq accesses (Ratio)
system.cpu.dcache.SwapReq.avgMshrMissLatency::cpu.data 12001.724138                       # average SwapReq mshr miss latency ((Tick/Count))
system.cpu.dcache.SwapReq.avgMshrMissLatency::total 12001.724138                       # average SwapReq mshr miss latency ((Tick/Count))
system.cpu.dcache.WriteLineReq.hits::cpu.data        58166                       # number of WriteLineReq hits (Count)
system.cpu.dcache.WriteLineReq.hits::total        58166                       # number of WriteLineReq hits (Count)
system.cpu.dcache.WriteLineReq.misses::cpu.data        95258                       # number of WriteLineReq misses (Count)
system.cpu.dcache.WriteLineReq.misses::total        95258                       # number of WriteLineReq misses (Count)
system.cpu.dcache.WriteLineReq.missLatency::cpu.data   1275440500                       # number of WriteLineReq miss ticks (Tick)
system.cpu.dcache.WriteLineReq.missLatency::total   1275440500                       # number of WriteLineReq miss ticks (Tick)
system.cpu.dcache.WriteLineReq.accesses::cpu.data       153424                       # number of WriteLineReq accesses(hits+misses) (Count)
system.cpu.dcache.WriteLineReq.accesses::total       153424                       # number of WriteLineReq accesses(hits+misses) (Count)
system.cpu.dcache.WriteLineReq.missRate::cpu.data     0.620881                       # miss rate for WriteLineReq accesses (Ratio)
system.cpu.dcache.WriteLineReq.missRate::total     0.620881                       # miss rate for WriteLineReq accesses (Ratio)
system.cpu.dcache.WriteLineReq.avgMissLatency::cpu.data 13389.326881                       # average WriteLineReq miss latency ((Tick/Count))
system.cpu.dcache.WriteLineReq.avgMissLatency::total 13389.326881                       # average WriteLineReq miss latency ((Tick/Count))
system.cpu.dcache.WriteLineReq.mshrMisses::cpu.data        95258                       # number of WriteLineReq MSHR misses (Count)
system.cpu.dcache.WriteLineReq.mshrMisses::total        95258                       # number of WriteLineReq MSHR misses (Count)
system.cpu.dcache.WriteLineReq.mshrMissLatency::cpu.data   1180182500                       # number of WriteLineReq MSHR miss ticks (Tick)
system.cpu.dcache.WriteLineReq.mshrMissLatency::total   1180182500                       # number of WriteLineReq MSHR miss ticks (Tick)
system.cpu.dcache.WriteLineReq.mshrMissRate::cpu.data     0.620881                       # mshr miss rate for WriteLineReq accesses (Ratio)
system.cpu.dcache.WriteLineReq.mshrMissRate::total     0.620881                       # mshr miss rate for WriteLineReq accesses (Ratio)
system.cpu.dcache.WriteLineReq.avgMshrMissLatency::cpu.data 12389.326881                       # average WriteLineReq mshr miss latency ((Tick/Count))
system.cpu.dcache.WriteLineReq.avgMshrMissLatency::total 12389.326881                       # average WriteLineReq mshr miss latency ((Tick/Count))
system.cpu.dcache.WriteReq.hits::cpu.data     32508190                       # number of WriteReq hits (Count)
system.cpu.dcache.WriteReq.hits::total       32508190                       # number of WriteReq hits (Count)
system.cpu.dcache.WriteReq.misses::cpu.data       117442                       # number of WriteReq misses (Count)
system.cpu.dcache.WriteReq.misses::total       117442                       # number of WriteReq misses (Count)
system.cpu.dcache.WriteReq.missLatency::cpu.data   1848865000                       # number of WriteReq miss ticks (Tick)
system.cpu.dcache.WriteReq.missLatency::total   1848865000                       # number of WriteReq miss ticks (Tick)
system.cpu.dcache.WriteReq.accesses::cpu.data     32625632                       # number of WriteReq accesses(hits+misses) (Count)
system.cpu.dcache.WriteReq.accesses::total     32625632                       # number of WriteReq accesses(hits+misses) (Count)
system.cpu.dcache.WriteReq.missRate::cpu.data     0.003600                       # miss rate for WriteReq accesses (Ratio)
system.cpu.dcache.WriteReq.missRate::total     0.003600                       # miss rate for WriteReq accesses (Ratio)
system.cpu.dcache.WriteReq.avgMissLatency::cpu.data 15742.792187                       # average WriteReq miss latency ((Tick/Count))
system.cpu.dcache.WriteReq.avgMissLatency::total 15742.792187                       # average WriteReq miss latency ((Tick/Count))
system.cpu.dcache.WriteReq.mshrMisses::cpu.data       117442                       # number of WriteReq MSHR misses (Count)
system.cpu.dcache.WriteReq.mshrMisses::total       117442                       # number of WriteReq MSHR misses (Count)
system.cpu.dcache.WriteReq.mshrMissLatency::cpu.data   1731423000                       # number of WriteReq MSHR miss ticks (Tick)
system.cpu.dcache.WriteReq.mshrMissLatency::total   1731423000                       # number of WriteReq MSHR miss ticks (Tick)
system.cpu.dcache.WriteReq.mshrMissRate::cpu.data     0.003600                       # mshr miss rate for WriteReq accesses (Ratio)
system.cpu.dcache.WriteReq.mshrMissRate::total     0.003600                       # mshr miss rate for WriteReq accesses (Ratio)
system.cpu.dcache.WriteReq.avgMshrMissLatency::cpu.data 14742.792187                       # average WriteReq mshr miss latency ((Tick/Count))
system.cpu.dcache.WriteReq.avgMshrMissLatency::total 14742.792187                       # average WriteReq mshr miss latency ((Tick/Count))
system.cpu.dcache.power_state.pwrStateResidencyTicks::UNDEFINED 630406518500                       # Cumulative time (in ticks) in various power states (Tick)
system.cpu.dcache.tags.tagsInUse          1023.783458                       # Average ticks per tags in use ((Tick/Count))
system.cpu.dcache.tags.totalRefs            116215308                       # Total number of references to valid blocks. (Count)
system.cpu.dcache.tags.sampledRefs             503808                       # Sample count of references to valid blocks. (Count)
system.cpu.dcache.tags.avgRefs             230.673804                       # Average number of references to valid blocks. ((Count/Count))
system.cpu.dcache.tags.warmupTick              177500                       # The tick when the warmup percentage was hit. (Tick)
system.cpu.dcache.tags.occupancies::cpu.data  1023.783458                       # Average occupied blocks per tick, per requestor ((Count/Tick))
system.cpu.dcache.tags.avgOccs::cpu.data     0.999789                       # Average percentage of cache occupancy ((Ratio/Tick))
system.cpu.dcache.tags.avgOccs::total        0.999789                       # Average percentage of cache occupancy ((Ratio/Tick))
system.cpu.dcache.tags.occupanciesTaskId::1024         1024                       # Occupied blocks per task id (Count)
system.cpu.dcache.tags.ageTaskId_1024::0           61                       # Occupied blocks per task id, per block age (Count)
system.cpu.dcache.tags.ageTaskId_1024::1          102                       # Occupied blocks per task id, per block age (Count)
system.cpu.dcache.tags.ageTaskId_1024::2          850                       # Occupied blocks per task id, per block age (Count)
system.cpu.dcache.tags.ageTaskId_1024::3           11                       # Occupied blocks per task id, per block age (Count)
system.cpu.dcache.tags.ratioOccsTaskId::1024            1                       # Ratio of occupied blocks and all blocks, per task id (Ratio)
system.cpu.dcache.tags.tagAccesses          232934424                       # Number of tag accesses (Count)
system.cpu.dcache.tags.dataAccesses         232934424                       # Number of data accesses (Count)
system.cpu.dcache.tags.power_state.pwrStateResidencyTicks::UNDEFINED 630406518500                       # Cumulative time (in ticks) in various power states (Tick)
system.cpu.exec_context.thread_0.numMatAluAccesses            0                       # Number of matrix alu accesses (Count)
system.cpu.exec_context.thread_0.numMatInsts            0                       # Number of matrix instructions (Count)
system.cpu.exec_context.thread_0.numIdleCycles     0.002000                       # Number of idle cycles (Cycle)
system.cpu.exec_context.thread_0.numBusyCycles 1260813036.998000                       # Number of busy cycles (Cycle)
system.cpu.exec_context.thread_0.notIdleFraction     1.000000                       # Percentage of non-idle cycles (Ratio)
system.cpu.exec_context.thread_0.idleFraction     0.000000                       # Percentage of idle cycles (Ratio)
system.cpu.executeStats0.numInsts           506264213                       # Number of executed instructions (Count)
system.cpu.executeStats0.numNop                     0                       # Number of nop insts executed (Count)
system.cpu.executeStats0.numBranches         35473542                       # Number of branches executed (Count)
system.cpu.executeStats0.numLoadInsts        81992673                       # Number of load instructions executed (Count)
system.cpu.executeStats0.numStoreInsts       32791256                       # Number of stores executed (Count)
system.cpu.executeStats0.instRate            0.401538                       # Inst execution rate ((Count/Cycle))
system.cpu.executeStats0.numCCRegReads      412443181                       # Number of times the CC registers were read (Count)
system.cpu.executeStats0.numCCRegWrites     108482829                       # Number of times the CC registers were written (Count)
system.cpu.executeStats0.numFpRegWrites             0                       # Number of times the floating registers were written (Count)
system.cpu.executeStats0.numIntAluAccesses    339644192                       # Number of integer alu accesses (Count)
system.cpu.executeStats0.numIntRegReads     531107634                       # Number of times the integer registers were read (Count)
system.cpu.executeStats0.numIntRegWrites    204383796                       # Number of times the integer registers were written (Count)
system.cpu.executeStats0.numMemRefs         114783929                       # Number of memory refs (Count)
system.cpu.executeStats0.numMiscRegReads    525634962                       # Number of times the Misc registers were read (Count)
system.cpu.executeStats0.numMiscRegWrites        33847                       # Number of times the Misc registers were written (Count)
system.cpu.executeStats0.numVecAluAccesses    277949198                       # Number of vector alu accesses (Count)
system.cpu.executeStats0.numVecPredRegReads       102697                       # Number of times the predicate registers were read (Count)
system.cpu.executeStats0.numVecPredRegWrites        34232                       # Number of times the predicate registers were written (Count)
system.cpu.executeStats0.numVecRegReads     489607859                       # Number of times the vector registers were read (Count)
system.cpu.executeStats0.numVecRegWrites    276070412                       # Number of times the vector registers were written (Count)
system.cpu.executeStats0.numDiscardedOps            0                       # Number of ops (including micro ops) which were discarded before commit (Count)
system.cpu.fetchStats0.numInsts             506264881                       # Number of instructions fetched (thread level) (Count)
system.cpu.fetchStats0.numOps               562362774                       # Number of ops (including micro ops) fetched (thread level) (Count)
system.cpu.fetchStats0.fetchRate             0.401538                       # Number of inst fetches per cycle ((Count/Cycle))
system.cpu.fetchStats0.numBranches           35473542                       # Number of branches fetched (Count)
system.cpu.fetchStats0.branchRate            0.028135                       # Number of branch fetches per cycle (Ratio)
system.cpu.fetchStats0.numFetchSuspends             0                       # Number of times Execute suspended instruction fetching (Count)
system.cpu.icache.demandHits::cpu.inst      506162359                       # number of demand (read+write) hits (Count)
system.cpu.icache.demandHits::total         506162359                       # number of demand (read+write) hits (Count)
system.cpu.icache.overallHits::cpu.inst     506162359                       # number of overall hits (Count)
system.cpu.icache.overallHits::total        506162359                       # number of overall hits (Count)
system.cpu.icache.demandMisses::cpu.inst       102528                       # number of demand (read+write) misses (Count)
system.cpu.icache.demandMisses::total          102528                       # number of demand (read+write) misses (Count)
system.cpu.icache.overallMisses::cpu.inst       102528                       # number of overall misses (Count)
system.cpu.icache.overallMisses::total         102528                       # number of overall misses (Count)
system.cpu.icache.demandMissLatency::cpu.inst   1600084500                       # number of demand (read+write) miss ticks (Tick)
system.cpu.icache.demandMissLatency::total   1600084500                       # number of demand (read+write) miss ticks (Tick)
system.cpu.icache.overallMissLatency::cpu.inst   1600084500                       # number of overall miss ticks (Tick)
system.cpu.icache.overallMissLatency::total   1600084500                       # number of overall miss ticks (Tick)
system.cpu.icache.demandAccesses::cpu.inst    506264887                       # number of demand (read+write) accesses (Count)
system.cpu.icache.demandAccesses::total     506264887                       # number of demand (read+write) accesses (Count)
system.cpu.icache.overallAccesses::cpu.inst    506264887                       # number of overall (read+write) accesses (Count)
system.cpu.icache.overallAccesses::total    506264887                       # number of overall (read+write) accesses (Count)
system.cpu.icache.demandMissRate::cpu.inst     0.000203                       # miss rate for demand accesses (Ratio)
system.cpu.icache.demandMissRate::total      0.000203                       # miss rate for demand accesses (Ratio)
system.cpu.icache.overallMissRate::cpu.inst     0.000203                       # miss rate for overall accesses (Ratio)
system.cpu.icache.overallMissRate::total     0.000203                       # miss rate for overall accesses (Ratio)
system.cpu.icache.demandAvgMissLatency::cpu.inst 15606.317299                       # average overall miss latency in ticks ((Tick/Count))
system.cpu.icache.demandAvgMissLatency::total 15606.317299                       # average overall miss latency in ticks ((Tick/Count))
system.cpu.icache.overallAvgMissLatency::cpu.inst 15606.317299                       # average overall miss latency ((Tick/Count))
system.cpu.icache.overallAvgMissLatency::total 15606.317299                       # average overall miss latency ((Tick/Count))
system.cpu.icache.blockedCycles::no_mshrs            0                       # number of cycles access was blocked (Cycle)
system.cpu.icache.blockedCycles::no_wbuffers            0                       # number of cycles access was blocked (Cycle)
system.cpu.icache.blockedCycles::no_targets            0                       # number of cycles access was blocked (Cycle)
system.cpu.icache.blockedCauses::no_mshrs            0                       # number of times access was blocked (Count)
system.cpu.icache.blockedCauses::no_wbuffers            0                       # number of times access was blocked (Count)
system.cpu.icache.blockedCauses::no_targets            0                       # number of times access was blocked (Count)
system.cpu.icache.avgBlocked::no_mshrs            nan                       # average number of cycles each access was blocked ((Cycle/Count))
system.cpu.icache.avgBlocked::no_wbuffers          nan                       # average number of cycles each access was blocked ((Cycle/Count))
system.cpu.icache.avgBlocked::no_targets          nan                       # average number of cycles each access was blocked ((Cycle/Count))
system.cpu.icache.writebacks::writebacks       102016                       # number of writebacks (Count)
system.cpu.icache.writebacks::total            102016                       # number of writebacks (Count)
system.cpu.icache.demandMshrMisses::cpu.inst       102528                       # number of demand (read+write) MSHR misses (Count)
system.cpu.icache.demandMshrMisses::total       102528                       # number of demand (read+write) MSHR misses (Count)
system.cpu.icache.overallMshrMisses::cpu.inst       102528                       # number of overall MSHR misses (Count)
system.cpu.icache.overallMshrMisses::total       102528                       # number of overall MSHR misses (Count)
system.cpu.icache.demandMshrMissLatency::cpu.inst   1497556500                       # number of demand (read+write) MSHR miss ticks (Tick)
system.cpu.icache.demandMshrMissLatency::total   1497556500                       # number of demand (read+write) MSHR miss ticks (Tick)
system.cpu.icache.overallMshrMissLatency::cpu.inst   1497556500                       # number of overall MSHR miss ticks (Tick)
system.cpu.icache.overallMshrMissLatency::total   1497556500                       # number of overall MSHR miss ticks (Tick)
system.cpu.icache.demandMshrMissRate::cpu.inst     0.000203                       # mshr miss ratio for demand accesses (Ratio)
system.cpu.icache.demandMshrMissRate::total     0.000203                       # mshr miss ratio for demand accesses (Ratio)
system.cpu.icache.overallMshrMissRate::cpu.inst     0.000203                       # mshr miss ratio for overall accesses (Ratio)
system.cpu.icache.overallMshrMissRate::total     0.000203                       # mshr miss ratio for overall accesses (Ratio)
system.cpu.icache.demandAvgMshrMissLatency::cpu.inst 14606.317299                       # average overall mshr miss latency ((Tick/Count))
system.cpu.icache.demandAvgMshrMissLatency::total 14606.317299                       # average overall mshr miss latency ((Tick/Count))
system.cpu.icache.overallAvgMshrMissLatency::cpu.inst 14606.317299                       # average overall mshr miss latency ((Tick/Count))
system.cpu.icache.overallAvgMshrMissLatency::total 14606.317299                       # average overall mshr miss latency ((Tick/Count))
system.cpu.icache.replacements                 102016                       # number of replacements (Count)
system.cpu.icache.ReadReq.hits::cpu.inst    506162359                       # number of ReadReq hits (Count)
system.cpu.icache.ReadReq.hits::total       506162359                       # number of ReadReq hits (Count)
system.cpu.icache.ReadReq.misses::cpu.inst       102528                       # number of ReadReq misses (Count)
system.cpu.icache.ReadReq.misses::total        102528                       # number of ReadReq misses (Count)
system.cpu.icache.ReadReq.missLatency::cpu.inst   1600084500                       # number of ReadReq miss ticks (Tick)
system.cpu.icache.ReadReq.missLatency::total   1600084500                       # number of ReadReq miss ticks (Tick)
system.cpu.icache.ReadReq.accesses::cpu.inst    506264887                       # number of ReadReq accesses(hits+misses) (Count)
system.cpu.icache.ReadReq.accesses::total    506264887                       # number of ReadReq accesses(hits+misses) (Count)
system.cpu.icache.ReadReq.missRate::cpu.inst     0.000203                       # miss rate for ReadReq accesses (Ratio)
system.cpu.icache.ReadReq.missRate::total     0.000203                       # miss rate for ReadReq accesses (Ratio)
system.cpu.icache.ReadReq.avgMissLatency::cpu.inst 15606.317299                       # average ReadReq miss latency ((Tick/Count))
system.cpu.icache.ReadReq.avgMissLatency::total 15606.317299                       # average ReadReq miss latency ((Tick/Count))
system.cpu.icache.ReadReq.mshrMisses::cpu.inst       102528                       # number of ReadReq MSHR misses (Count)
system.cpu.icache.ReadReq.mshrMisses::total       102528                       # number of ReadReq MSHR misses (Count)
system.cpu.icache.ReadReq.mshrMissLatency::cpu.inst   1497556500                       # number of ReadReq MSHR miss ticks (Tick)
system.cpu.icache.ReadReq.mshrMissLatency::total   1497556500                       # number of ReadReq MSHR miss ticks (Tick)
system.cpu.icache.ReadReq.mshrMissRate::cpu.inst     0.000203                       # mshr miss rate for ReadReq accesses (Ratio)
system.cpu.icache.ReadReq.mshrMissRate::total     0.000203                       # mshr miss rate for ReadReq accesses (Ratio)
system.cpu.icache.ReadReq.avgMshrMissLatency::cpu.inst 14606.317299                       # average ReadReq mshr miss latency ((Tick/Count))
system.cpu.icache.ReadReq.avgMshrMissLatency::total 14606.317299                       # average ReadReq mshr miss latency ((Tick/Count))
system.cpu.icache.power_state.pwrStateResidencyTicks::UNDEFINED 630406518500                       # Cumulative time (in ticks) in various power states (Tick)
system.cpu.icache.tags.tagsInUse           510.872319                       # Average ticks per tags in use ((Tick/Count))
system.cpu.icache.tags.totalRefs            506264887                       # Total number of references to valid blocks. (Count)
system.cpu.icache.tags.sampledRefs             102528                       # Sample count of references to valid blocks. (Count)
system.cpu.icache.tags.avgRefs            4937.820761                       # Average number of references to valid blocks. ((Count/Count))
system.cpu.icache.tags.warmupTick               87500                       # The tick when the warmup percentage was hit. (Tick)
system.cpu.icache.tags.occupancies::cpu.inst   510.872319                       # Average occupied blocks per tick, per requestor ((Count/Tick))
system.cpu.icache.tags.avgOccs::cpu.inst     0.997797                       # Average percentage of cache occupancy ((Ratio/Tick))
system.cpu.icache.tags.avgOccs::total        0.997797                       # Average percentage of cache occupancy ((Ratio/Tick))
system.cpu.icache.tags.occupanciesTaskId::1024          512                       # Occupied blocks per task id (Count)
system.cpu.icache.tags.ageTaskId_1024::0           96                       # Occupied blocks per task id, per block age (Count)
system.cpu.icache.tags.ageTaskId_1024::2           94                       # Occupied blocks per task id, per block age (Count)
system.cpu.icache.tags.ageTaskId_1024::3          272                       # Occupied blocks per task id, per block age (Count)
system.cpu.icache.tags.ageTaskId_1024::4           50                       # Occupied blocks per task id, per block age (Count)
system.cpu.icache.tags.ratioOccsTaskId::1024            1                       # Ratio of occupied blocks and all blocks, per task id (Ratio)
system.cpu.icache.tags.tagAccesses         1012632302                       # Number of tag accesses (Count)
system.cpu.icache.tags.dataAccesses        1012632302                       # Number of data accesses (Count)
system.cpu.icache.tags.power_state.pwrStateResidencyTicks::UNDEFINED 630406518500                       # Cumulative time (in ticks) in various power states (Tick)
system.cpu.mmu.alignFaults                          0                       # Number of MMU faults due to alignment restrictions (Count)
system.cpu.mmu.prefetchFaults                       0                       # Number of MMU faults due to prefetch (Count)
system.cpu.mmu.domainFaults                         0                       # Number of MMU faults due to domain restrictions (Count)
system.cpu.mmu.permsFaults                          0                       # Number of MMU faults due to permissions restrictions (Count)
system.cpu.mmu.dtb.readHits                         0                       # Read hits (Count)
system.cpu.mmu.dtb.readMisses                       0                       # Read misses (Count)
system.cpu.mmu.dtb.writeHits                        0                       # Write hits (Count)
system.cpu.mmu.dtb.writeMisses                      0                       # Write misses (Count)
system.cpu.mmu.dtb.inserts                          0                       # Number of times an entry is inserted into the TLB (Count)
system.cpu.mmu.dtb.flushTlb                         1                       # Number of times a TLB invalidation was requested (Count)
system.cpu.mmu.dtb.flushedEntries                   0                       # Number of entries that have been flushed from TLB (Count)
system.cpu.mmu.dtb.readAccesses                     0                       # Read accesses (Count)
system.cpu.mmu.dtb.writeAccesses                    0                       # Write accesses (Count)
system.cpu.mmu.dtb.hits                             0                       # Total TLB (inst and data) hits (Count)
system.cpu.mmu.dtb.misses                           0                       # Total TLB (inst and data) misses (Count)
system.cpu.mmu.dtb.accesses                         0                       # Total TLB (inst and data) accesses (Count)
system.cpu.mmu.itb.instHits                         0                       # Inst hits (Count)
system.cpu.mmu.itb.instMisses                       0                       # Inst misses (Count)
system.cpu.mmu.itb.inserts                          0                       # Number of times an entry is inserted into the TLB (Count)
system.cpu.mmu.itb.flushTlb                         1                       # Number of times a TLB invalidation was requested (Count)
system.cpu.mmu.itb.flushedEntries                   0                       # Number of entries that have been flushed from TLB (Count)
system.cpu.mmu.itb.instAccesses                     0                       # Inst accesses (Count)
system.cpu.mmu.itb.hits                             0                       # Total TLB (inst and data) hits (Count)
system.cpu.mmu.itb.misses                           0                       # Total TLB (inst and data) misses (Count)
system.cpu.mmu.itb.accesses                         0                       # Total TLB (inst and data) accesses (Count)
system.cpu.mmu.l2_shared.instHits                   0                       # Inst hits (Count)
system.cpu.mmu.l2_shared.instMisses                 0                       # Inst misses (Count)
system.cpu.mmu.l2_shared.inserts                    0                       # Number of times an entry is inserted into the TLB (Count)
system.cpu.mmu.l2_shared.flushTlb                   1                       # Number of times a TLB invalidation was requested (Count)
system.cpu.mmu.l2_shared.flushedEntries             0                       # Number of entries that have been flushed from TLB (Count)
system.cpu.mmu.l2_shared.instAccesses               0                       # Inst accesses (Count)
system.cpu.mmu.l2_shared.hits                       0                       # Total TLB (inst and data) hits (Count)
system.cpu.mmu.l2_shared.misses                     0                       # Total TLB (inst and data) misses (Count)
system.cpu.mmu.l2_shared.accesses                   0                       # Total TLB (inst and data) accesses (Count)
system.cpu.mmu.stage2_dtb.readHits                  0                       # Read hits (Count)
system.cpu.mmu.stage2_dtb.readMisses                0                       # Read misses (Count)
system.cpu.mmu.stage2_dtb.writeHits                 0                       # Write hits (Count)
system.cpu.mmu.stage2_dtb.writeMisses               0                       # Write misses (Count)
system.cpu.mmu.stage2_dtb.inserts                   0                       # Number of times an entry is inserted into the TLB (Count)
system.cpu.mmu.stage2_dtb.flushTlb                  1                       # Number of times a TLB invalidation was requested (Count)
system.cpu.mmu.stage2_dtb.flushedEntries            0                       # Number of entries that have been flushed from TLB (Count)
system.cpu.mmu.stage2_dtb.readAccesses              0                       # Read accesses (Count)
system.cpu.mmu.stage2_dtb.writeAccesses             0                       # Write accesses (Count)
system.cpu.mmu.stage2_dtb.hits                      0                       # Total TLB (inst and data) hits (Count)
system.cpu.mmu.stage2_dtb.misses                    0                       # Total TLB (inst and data) misses (Count)
system.cpu.mmu.stage2_dtb.accesses                  0                       # Total TLB (inst and data) accesses (Count)
system.cpu.mmu.stage2_itb.instHits                  0                       # Inst hits (Count)
system.cpu.mmu.stage2_itb.instMisses                0                       # Inst misses (Count)
system.cpu.mmu.stage2_itb.inserts                   0                       # Number of times an entry is inserted into the TLB (Count)
system.cpu.mmu.stage2_itb.flushTlb                  1                       # Number of times a TLB invalidation was requested (Count)
system.cpu.mmu.stage2_itb.flushedEntries            0                       # Number of entries that have been flushed from TLB (Count)
system.cpu.mmu.stage2_itb.instAccesses              0                       # Inst accesses (Count)
system.cpu.mmu.stage2_itb.hits                      0                       # Total TLB (inst and data) hits (Count)
system.cpu.mmu.stage2_itb.misses                    0                       # Total TLB (inst and data) misses (Count)
system.cpu.mmu.stage2_itb.accesses                  0                       # Total TLB (inst and data) accesses (Count)
system.cpu.mmu.walker.instructionWalksS1            0                       # Table walker stage 1 instruction walks requested (Count)
system.cpu.mmu.walker.instructionWalksS2            0                       # Table walker stage 2 instruction walks requested (Count)
system.cpu.mmu.walker.dataWalksS1                   0                       # Table walker stage 1 data walks requested (Count)
system.cpu.mmu.walker.dataWalksS2                   0                       # Table walker stage 2 data walks requested (Count)
system.cpu.mmu.walker.requestOrigin_Requested::Data            0                       # Table walker requests started/completed, data/inst (Count)
system.cpu.mmu.walker.requestOrigin_Requested::Inst            0                       # Table walker requests started/completed, data/inst (Count)
system.cpu.mmu.walker.requestOrigin_Requested::total            0                       # Table walker requests started/completed, data/inst (Count)
system.cpu.mmu.walker.requestOrigin_Completed::Data            0                       # Table walker requests started/completed, data/inst (Count)
system.cpu.mmu.walker.requestOrigin_Completed::Inst            0                       # Table walker requests started/completed, data/inst (Count)
system.cpu.mmu.walker.requestOrigin_Completed::total            0                       # Table walker requests started/completed, data/inst (Count)
system.cpu.mmu.walker.requestOrigin::total            0                       # Table walker requests started/completed, data/inst (Count)
system.cpu.mmu.walker.walks                         0                       # Table walker walks requested (Count)
system.cpu.mmu.walker.power_state.pwrStateResidencyTicks::UNDEFINED 630406518500                       # Cumulative time (in ticks) in various power states (Tick)
system.cpu.mmu.walker.walk_unit_func_s1.power_state.pwrStateResidencyTicks::UNDEFINED 630406518500                       # Cumulative time (in ticks) in various power states (Tick)
system.cpu.mmu.walker.walk_unit_func_s2.power_state.pwrStateResidencyTicks::UNDEFINED 630406518500                       # Cumulative time (in ticks) in various power states (Tick)
system.cpu.mmu.walker.walk_units0.power_state.pwrStateResidencyTicks::UNDEFINED 630406518500                       # Cumulative time (in ticks) in various power states (Tick)
system.cpu.mmu.walker.walk_units1.power_state.pwrStateResidencyTicks::UNDEFINED 630406518500                       # Cumulative time (in ticks) in various power states (Tick)
system.cpu.mmu.walker.walk_units2.power_state.pwrStateResidencyTicks::UNDEFINED 630406518500                       # Cumulative time (in ticks) in various power states (Tick)
system.cpu.mmu.walker.walk_units3.power_state.pwrStateResidencyTicks::UNDEFINED 630406518500                       # Cumulative time (in ticks) in various power states (Tick)
system.cpu.mmu.walker.walk_units4.power_state.pwrStateResidencyTicks::UNDEFINED 630406518500                       # Cumulative time (in ticks) in various power states (Tick)
system.cpu.mmu.walker.walk_units5.power_state.pwrStateResidencyTicks::UNDEFINED 630406518500                       # Cumulative time (in ticks) in various power states (Tick)
system.cpu.mmu.walker.walk_units6.power_state.pwrStateResidencyTicks::UNDEFINED 630406518500                       # Cumulative time (in ticks) in various power states (Tick)
system.cpu.mmu.walker.walk_units7.power_state.pwrStateResidencyTicks::UNDEFINED 630406518500                       # Cumulative time (in ticks) in various power states (Tick)
system.cpu.power_state.pwrStateResidencyTicks::ON 630406518500                       # Cumulative time (in ticks) in various power states (Tick)
system.cpu.thread_0.numInsts                506264213                       # Number of Instructions committed (Count)
system.cpu.thread_0.numOps                  562362100                       # Number of Ops committed (Count)
system.cpu.thread_0.numMemRefs              114783929                       # Number of Memory References (Count)
system.cpu.workload.numSyscalls                   583                       # Number of system calls (Count)
system.cpu_clk_domain.clock                       500                       # Clock period in ticks (Tick)
system.cpu_voltage_domain.voltage                   1                       # Voltage in Volts (Volt)
system.l2.demandHits::cpu.inst                  98657                       # number of demand (read+write) hits (Count)
system.l2.demandHits::cpu.data                 392531                       # number of demand (read+write) hits (Count)
system.l2.demandHits::total                    491188                       # number of demand (read+write) hits (Count)
system.l2.overallHits::cpu.inst                 98657                       # number of overall hits (Count)
system.l2.overallHits::cpu.data                392531                       # number of overall hits (Count)
system.l2.overallHits::total                   491188                       # number of overall hits (Count)
system.l2.demandMisses::cpu.inst                 3871                       # number of demand (read+write) misses (Count)
system.l2.demandMisses::cpu.data                16019                       # number of demand (read+write) misses (Count)
system.l2.demandMisses::total                   19890                       # number of demand (read+write) misses (Count)
system.l2.overallMisses::cpu.inst                3871                       # number of overall misses (Count)
system.l2.overallMisses::cpu.data               16019                       # number of overall misses (Count)
system.l2.overallMisses::total                  19890                       # number of overall misses (Count)
system.l2.demandMissLatency::cpu.inst       303343500                       # number of demand (read+write) miss ticks (Tick)
system.l2.demandMissLatency::cpu.data      1231366500                       # number of demand (read+write) miss ticks (Tick)
system.l2.demandMissLatency::total         1534710000                       # number of demand (read+write) miss ticks (Tick)
system.l2.overallMissLatency::cpu.inst      303343500                       # number of overall miss ticks (Tick)
[...]
system.mem_ctrls.dram.perBankWrBursts::9            0                       # Per bank write bursts (Count)
system.mem_ctrls.dram.perBankWrBursts::10            0                       # Per bank write bursts (Count)
system.mem_ctrls.dram.perBankWrBursts::11            0                       # Per bank write bursts (Count)
system.mem_ctrls.dram.perBankWrBursts::12            0                       # Per bank write bursts (Count)
system.mem_ctrls.dram.perBankWrBursts::13            0                       # Per bank write bursts (Count)
system.mem_ctrls.dram.perBankWrBursts::14            0                       # Per bank write bursts (Count)
system.mem_ctrls.dram.perBankWrBursts::15            0                       # Per bank write bursts (Count)
system.mem_ctrls.dram.totQLat               150664500                       # Total ticks spent queuing (Tick)
system.mem_ctrls.dram.totBusLat              99450000                       # Total ticks spent in databus transfers (Tick)
system.mem_ctrls.dram.totMemAccLat          523602000                       # Total ticks spent from burst creation until serviced by the DRAM (Tick)
system.mem_ctrls.dram.avgQLat                 7574.89                       # Average queueing delay per DRAM burst ((Tick/Count))
system.mem_ctrls.dram.avgBusLat               5000.00                       # Average bus latency per DRAM burst ((Tick/Count))
system.mem_ctrls.dram.avgMemAccLat           26324.89                       # Average memory access latency per DRAM burst ((Tick/Count))
system.mem_ctrls.dram.readRowHits               15547                       # Number of row buffer hits during reads (Count)
system.mem_ctrls.dram.writeRowHits                  0                       # Number of row buffer hits during writes (Count)
system.mem_ctrls.dram.readRowHitRate            78.16                       # Row buffer hit rate for reads (Ratio)
system.mem_ctrls.dram.writeRowHitRate             nan                       # Row buffer hit rate for writes (Ratio)
system.mem_ctrls.dram.bytesPerActivate::samples         4341                       # Bytes accessed per row activation (Byte)
system.mem_ctrls.dram.bytesPerActivate::mean   293.196959                       # Bytes accessed per row activation (Byte)
system.mem_ctrls.dram.bytesPerActivate::gmean   177.143494                       # Bytes accessed per row activation (Byte)
system.mem_ctrls.dram.bytesPerActivate::stdev   315.943507                       # Bytes accessed per row activation (Byte)
system.mem_ctrls.dram.bytesPerActivate::0-127         1554     35.80%     35.80% # Bytes accessed per row activation (Byte)
system.mem_ctrls.dram.bytesPerActivate::128-255         1157     26.65%     62.45% # Bytes accessed per row activation (Byte)
system.mem_ctrls.dram.bytesPerActivate::256-383          498     11.47%     73.92% # Bytes accessed per row activation (Byte)
system.mem_ctrls.dram.bytesPerActivate::384-511          292      6.73%     80.65% # Bytes accessed per row activation (Byte)
system.mem_ctrls.dram.bytesPerActivate::512-639          156      3.59%     84.24% # Bytes accessed per row activation (Byte)
system.mem_ctrls.dram.bytesPerActivate::640-767           88      2.03%     86.27% # Bytes accessed per row activation (Byte)
system.mem_ctrls.dram.bytesPerActivate::768-895           42      0.97%     87.24% # Bytes accessed per row activation (Byte)
system.mem_ctrls.dram.bytesPerActivate::896-1023           46      1.06%     88.30% # Bytes accessed per row activation (Byte)
system.mem_ctrls.dram.bytesPerActivate::1024-1151          508     11.70%    100.00% # Bytes accessed per row activation (Byte)
system.mem_ctrls.dram.bytesPerActivate::total         4341                       # Bytes accessed per row activation (Byte)
system.mem_ctrls.dram.dramBytesRead           1272960                       # Total bytes read (Byte)
system.mem_ctrls.dram.dramBytesWritten              0                       # Total bytes written (Byte)
system.mem_ctrls.dram.avgRdBW                2.019268                       # Average DRAM read bandwidth in MiBytes/s ((Byte/Second))
system.mem_ctrls.dram.avgWrBW                       0                       # Average DRAM write bandwidth in MiBytes/s ((Byte/Second))
system.mem_ctrls.dram.peakBW                 12800.00                       # Theoretical peak bandwidth in MiByte/s ((Byte/Second))
system.mem_ctrls.dram.busUtil                    0.02                       # Data bus utilization in percentage (Ratio)
system.mem_ctrls.dram.busUtilRead                0.02                       # Data bus utilization in percentage for reads (Ratio)
system.mem_ctrls.dram.busUtilWrite               0.00                       # Data bus utilization in percentage for writes (Ratio)
system.mem_ctrls.dram.pageHitRate               78.16                       # Row buffer hit rate, read and write combined (Ratio)
system.mem_ctrls.dram.power_state.pwrStateResidencyTicks::UNDEFINED 630406518500                       # Cumulative time (in ticks) in various power states (Tick)
system.mem_ctrls.dram.rank0.actEnergy        15415260                       # Energy for activate commands per rank (pJ) (Joule)
system.mem_ctrls.dram.rank0.preEnergy         8189610                       # Energy for precharge commands per rank (pJ) (Joule)
system.mem_ctrls.dram.rank0.readEnergy       72813720                       # Energy for read commands per rank (pJ) (Joule)
system.mem_ctrls.dram.rank0.writeEnergy             0                       # Energy for write commands per rank (pJ) (Joule)
system.mem_ctrls.dram.rank0.refreshEnergy 49763712960.000008                       # Energy for refresh commands per rank (pJ) (Joule)
system.mem_ctrls.dram.rank0.actBackEnergy  11613140100                       # Energy for active background per rank (pJ) (Joule)
system.mem_ctrls.dram.rank0.preBackEnergy 232296616800                       # Energy for precharge background per rank (pJ) (Joule)
system.mem_ctrls.dram.rank0.actPowerDownEnergy            0                       # Energy for active power-down per rank (pJ) (Joule)
system.mem_ctrls.dram.rank0.prePowerDownEnergy            0                       # Energy for precharge power-down per rank (pJ) (Joule)
system.mem_ctrls.dram.rank0.selfRefreshEnergy            0                       # Energy for self refresh per rank (pJ) (Joule)
system.mem_ctrls.dram.rank0.totalEnergy  293769888450                       # Total energy per rank (pJ) (Joule)
system.mem_ctrls.dram.rank0.averagePower   466.000715                       # Core power per rank (mW) (Watt)
system.mem_ctrls.dram.rank0.totalIdleTime            0                       # Total Idle time Per DRAM Rank (Tick)
system.mem_ctrls.dram.rank0.pwrStateTime::IDLE 603807680000                       # Time in different power states (Tick)
system.mem_ctrls.dram.rank0.pwrStateTime::REF  21050640000                       # Time in different power states (Tick)
system.mem_ctrls.dram.rank0.pwrStateTime::SREF            0                       # Time in different power states (Tick)
system.mem_ctrls.dram.rank0.pwrStateTime::PRE_PDN            0                       # Time in different power states (Tick)
system.mem_ctrls.dram.rank0.pwrStateTime::ACT   5548198500                       # Time in different power states (Tick)
system.mem_ctrls.dram.rank0.pwrStateTime::ACT_PDN            0                       # Time in different power states (Tick)
system.mem_ctrls.dram.rank1.actEnergy        15593760                       # Energy for activate commands per rank (pJ) (Joule)
system.mem_ctrls.dram.rank1.preEnergy         8284485                       # Energy for precharge commands per rank (pJ) (Joule)
system.mem_ctrls.dram.rank1.readEnergy       69200880                       # Energy for read commands per rank (pJ) (Joule)
system.mem_ctrls.dram.rank1.writeEnergy             0                       # Energy for write commands per rank (pJ) (Joule)
system.mem_ctrls.dram.rank1.refreshEnergy 49763712960.000008                       # Energy for refresh commands per rank (pJ) (Joule)
system.mem_ctrls.dram.rank1.actBackEnergy  11708579190                       # Energy for active background per rank (pJ) (Joule)
system.mem_ctrls.dram.rank1.preBackEnergy 232216247040                       # Energy for precharge background per rank (pJ) (Joule)
system.mem_ctrls.dram.rank1.actPowerDownEnergy            0                       # Energy for active power-down per rank (pJ) (Joule)
system.mem_ctrls.dram.rank1.prePowerDownEnergy            0                       # Energy for precharge power-down per rank (pJ) (Joule)
system.mem_ctrls.dram.rank1.selfRefreshEnergy            0                       # Energy for self refresh per rank (pJ) (Joule)
system.mem_ctrls.dram.rank1.totalEnergy  293781618315                       # Total energy per rank (pJ) (Joule)
system.mem_ctrls.dram.rank1.averagePower   466.019322                       # Core power per rank (mW) (Watt)
system.mem_ctrls.dram.rank1.totalIdleTime            0                       # Total Idle time Per DRAM Rank (Tick)
system.mem_ctrls.dram.rank1.pwrStateTime::IDLE 603597425000                       # Time in different power states (Tick)
system.mem_ctrls.dram.rank1.pwrStateTime::REF  21050640000                       # Time in different power states (Tick)
system.mem_ctrls.dram.rank1.pwrStateTime::SREF            0                       # Time in different power states (Tick)
system.mem_ctrls.dram.rank1.pwrStateTime::PRE_PDN            0                       # Time in different power states (Tick)
system.mem_ctrls.dram.rank1.pwrStateTime::ACT   5758453500                       # Time in different power states (Tick)
system.mem_ctrls.dram.rank1.pwrStateTime::ACT_PDN            0                       # Time in different power states (Tick)
system.mem_ctrls.power_state.pwrStateResidencyTicks::UNDEFINED 630406518500                       # Cumulative time (in ticks) in various power states (Tick)
system.membus.transDist::ReadResp               15071                       # Transaction distribution (Count)
system.membus.transDist::CleanEvict                20                       # Transaction distribution (Count)
system.membus.transDist::ReadExReq               4819                       # Transaction distribution (Count)
system.membus.transDist::ReadExResp              4819                       # Transaction distribution (Count)
system.membus.transDist::ReadSharedReq          15071                       # Transaction distribution (Count)
system.membus.transDist::InvalidateReq           2032                       # Transaction distribution (Count)
system.membus.pktCount_system.l2.mem_side_port::system.mem_ctrls.port        41832                       # Packet count per connected requestor and responder (Count)
system.membus.pktCount::total                   41832                       # Packet count per connected requestor and responder (Count)
system.membus.pktSize_system.l2.mem_side_port::system.mem_ctrls.port      1272960                       # Cumulative packet size per connected requestor and responder (Byte)
system.membus.pktSize::total                  1272960                       # Cumulative packet size per connected requestor and responder (Byte)
system.membus.snoops                                0                       # Total snoops (Count)
system.membus.snoopTraffic                          0                       # Total snoop traffic (Byte)
system.membus.snoopFanout::samples              21922                       # Request fanout histogram (Count)
system.membus.snoopFanout::mean                     0                       # Request fanout histogram (Count)
system.membus.snoopFanout::stdev                    0                       # Request fanout histogram (Count)
system.membus.snoopFanout::underflows               0      0.00%      0.00% # Request fanout histogram (Count)
system.membus.snoopFanout::0                    21922    100.00%    100.00% # Request fanout histogram (Count)
system.membus.snoopFanout::1                        0      0.00%    100.00% # Request fanout histogram (Count)
system.membus.snoopFanout::overflows                0      0.00%    100.00% # Request fanout histogram (Count)
system.membus.snoopFanout::min_value                0                       # Request fanout histogram (Count)
system.membus.snoopFanout::max_value                0                       # Request fanout histogram (Count)
system.membus.snoopFanout::total                21922                       # Request fanout histogram (Count)
system.membus.power_state.pwrStateResidencyTicks::UNDEFINED 630406518500                       # Cumulative time (in ticks) in various power states (Tick)
system.membus.reqLayer0.occupancy            22687500                       # Layer occupancy (ticks) (Tick)
system.membus.reqLayer0.utilization               0.0                       # Layer utilization (Ratio)
system.membus.respLayer1.occupancy          105605750                       # Layer occupancy (ticks) (Tick)
system.membus.respLayer1.utilization              0.0                       # Layer utilization (Ratio)
system.membus.snoop_filter.totRequests          21942                       # Total number of requests made to the snoop filter. (Count)
system.membus.snoop_filter.hitSingleRequests           20                       # Number of requests hitting in the snoop filter with a single holder of the requested data. (Count)
system.membus.snoop_filter.hitMultiRequests            0                       # Number of requests hitting in the snoop filter with multiple (>1) holders of the requested data. (Count)
system.membus.snoop_filter.totSnoops                0                       # Total number of snoops made to the snoop filter. (Count)
system.membus.snoop_filter.hitSingleSnoops            0                       # Number of snoops hitting in the snoop filter with a single holder of the requested data. (Count)
system.membus.snoop_filter.hitMultiSnoops            0                       # Number of snoops hitting in the snoop filter with multiple (>1) holders of the requested data. (Count)
system.tol2bus.transDist::ReadResp             393346                       # Transaction distribution (Count)
system.tol2bus.transDist::WritebackDirty       466218                       # Transaction distribution (Count)
system.tol2bus.transDist::WritebackClean       102016                       # Transaction distribution (Count)
system.tol2bus.transDist::CleanEvict            36586                       # Transaction distribution (Count)
system.tol2bus.transDist::ReadExReq            117732                       # Transaction distribution (Count)
system.tol2bus.transDist::ReadExResp           117732                       # Transaction distribution (Count)
system.tol2bus.transDist::ReadCleanReq         102528                       # Transaction distribution (Count)
system.tol2bus.transDist::ReadSharedReq        290818                       # Transaction distribution (Count)
system.tol2bus.transDist::InvalidateReq         95258                       # Transaction distribution (Count)
system.tol2bus.transDist::InvalidateResp        95258                       # Transaction distribution (Count)
system.tol2bus.pktCount_system.cpu.icache.mem_side_port::system.l2.cpu_side_port       307072                       # Packet count per connected requestor and responder (Count)
system.tol2bus.pktCount_system.cpu.dcache.mem_side_port::system.l2.cpu_side_port      1510400                       # Packet count per connected requestor and responder (Count)
system.tol2bus.pktCount::total                1817472                       # Packet count per connected requestor and responder (Count)
system.tol2bus.pktSize_system.cpu.icache.mem_side_port::system.l2.cpu_side_port     13090816                       # Cumulative packet size per connected requestor and responder (Byte)
system.tol2bus.pktSize_system.cpu.dcache.mem_side_port::system.l2.cpu_side_port     55985152                       # Cumulative packet size per connected requestor and responder (Byte)
system.tol2bus.pktSize::total                69075968                       # Cumulative packet size per connected requestor and responder (Byte)
system.tol2bus.snoops                              20                       # Total snoops (Count)
system.tol2bus.snoopTraffic                         0                       # Total snoop traffic (Byte)
system.tol2bus.snoopFanout::samples            606356                       # Request fanout histogram (Count)
system.tol2bus.snoopFanout::mean             0.000002                       # Request fanout histogram (Count)
system.tol2bus.snoopFanout::stdev            0.001284                       # Request fanout histogram (Count)
system.tol2bus.snoopFanout::underflows              0      0.00%      0.00% # Request fanout histogram (Count)
system.tol2bus.snoopFanout::0                  606355    100.00%    100.00% # Request fanout histogram (Count)
system.tol2bus.snoopFanout::1                       1      0.00%    100.00% # Request fanout histogram (Count)
system.tol2bus.snoopFanout::2                       0      0.00%    100.00% # Request fanout histogram (Count)
system.tol2bus.snoopFanout::overflows               0      0.00%    100.00% # Request fanout histogram (Count)
system.tol2bus.snoopFanout::min_value               0                       # Request fanout histogram (Count)
system.tol2bus.snoopFanout::max_value               1                       # Request fanout histogram (Count)
system.tol2bus.snoopFanout::total              606356                       # Request fanout histogram (Count)
system.tol2bus.power_state.pwrStateResidencyTicks::UNDEFINED 630406518500                       # Cumulative time (in ticks) in various power states (Tick)
system.tol2bus.reqLayer0.occupancy         1173802000                       # Layer occupancy (ticks) (Tick)
system.tol2bus.reqLayer0.utilization              0.0                       # Layer utilization (Ratio)
system.tol2bus.respLayer0.occupancy         153792000                       # Layer occupancy (ticks) (Tick)
system.tol2bus.respLayer0.utilization             0.0                       # Layer utilization (Ratio)
system.tol2bus.respLayer1.occupancy         660454000                       # Layer occupancy (ticks) (Tick)
system.tol2bus.respLayer1.utilization             0.0                       # Layer utilization (Ratio)
system.tol2bus.snoop_filter.totRequests       1211136                       # Total number of requests made to the snoop filter. (Count)
system.tol2bus.snoop_filter.hitSingleRequests       604800                       # Number of requests hitting in the snoop filter with a single holder of the requested data. (Count)
system.tol2bus.snoop_filter.hitMultiRequests            1                       # Number of requests hitting in the snoop filter with multiple (>1) holders of the requested data. (Count)
system.tol2bus.snoop_filter.totSnoops               0                       # Total number of snoops made to the snoop filter. (Count)
system.tol2bus.snoop_filter.hitSingleSnoops            0                       # Number of snoops hitting in the snoop filter with a single holder of the requested data. (Count)
system.tol2bus.snoop_filter.hitMultiSnoops            0                       # Number of snoops hitting in the snoop filter with multiple (>1) holders of the requested data. (Count)
system.voltage_domain.voltage                       1                       # Voltage in Volts (Volt)
system.workload.inst.arm                            0                       # number of arm instructions executed (Count)
system.workload.inst.quiesce                        0                       # number of quiesce instructions executed (Count)

---------- End Simulation Statistics   ----------
